pydss-projects/GSO_Rural_Base_rhs1_rdt137/DSSfiles/Lines.dss
New Line.l(r:p1rlv2-rdm1) Units=km Length=0.018383700000000003 bus1=rdm1.1.2 bus2=p1rlv2.1.2 switch=n enabled=y phases=2 Linecode=1P_UG_AL_1/0_Brenau_2

New Line.l(r:p1rlv1-rdm0) Units=km Length=0.0175868 bus1=rdm0.1.2 bus2=p1rlv1.1.2 switch=n enabled=y phases=2 Linecode=1P_UG_AL_1/0_Brenau_2

New Line.l(r:rdm0-rdm1) Units=km Length=0.0363066 bus1=rdm1.1.2 bus2=rdm0.1.2 switch=n enabled=y phases=2 Linecode=1P_UG_AL_1/0_Brenau_2

New Line.l(r:rdm1-rdt0lv) Units=km Length=0.00899647 bus1=rdt0lv.1.2 bus2=rdm1.1.2 switch=n enabled=y phases=2 Linecode=1P_UG_AL_1/0_Brenau_2

New Line.l(r:p1rlv3-rdm2) Units=km Length=0.0221948 bus1=rdm2.1.2 bus2=p1rlv3.1.2 switch=n enabled=y phases=2 Linecode=1P_UG_AL_1/0_Brenau_2

New Line.l(r:rdm2-rdt0lv) Units=km Length=0.0377451 bus1=rdt0lv.1.2 bus2=rdm2.1.2 switch=n enabled=y phases=2 Linecode=1P_UG_AL_1/0_Brenau_2

New Line.l(r:p1rlv4-rdt1lv) Units=km Length=0.018166700000000004 bus1=rdt1lv.1.2 bus2=p1rlv4.1.2 switch=n enabled=y phases=2 Linecode=1P_UG_AL_1/0_Brenau_2

New Line.l(r:p1rlv5-rdm4) Units=km Length=0.0215974 bus1=rdm4.1.2 bus2=p1rlv5.1.2 switch=n enabled=y phases=2 Linecode=1P_UG_AL_1/0_Brenau_2

New Line.l(r:rdm4-rdt2lv) Units=km Length=0.0191629 bus1=rdt2lv.1.2 bus2=rdm4.1.2 switch=n enabled=y phases=2 Linecode=1P_UG_AL_1/0_Brenau_2

New Line.l(r:p1rlv6-rdm5) Units=km Length=0.015014700000000002 bus1=rdm5.1.2 bus2=p1rlv6.1.2 switch=n enabled=y phases=2 Linecode=1P_UG_AL_1/0_Brenau_2

New Line.l(r:rdm5-rdt2lv) Units=km Length=0.0191669 bus1=rdt2lv.1.2 bus2=rdm5.1.2 switch=n enabled=y phases=2 Linecode=1P_UG_AL_1/0_Brenau_2

New Line.l(r:p1rlv7-rdt3lv) Units=km Length=0.0184976 bus1=rdt3lv.1.2 bus2=p1rlv7.1.2 switch=n enabled=y phases=2 Linecode=1P_OH_AL_2/0_Rucina_2

New Line.l(r:p1rlv8-rdt4lv) Units=km Length=0.023193500000000002 bus1=rdt4lv.1.2 bus2=p1rlv8.1.2 switch=n enabled=y phases=2 Linecode=1P_OH_AL_2/0_Rucina_2

New Line.l(r:p1rlv9-rdt5lv) Units=km Length=0.0185131 bus1=rdt5lv.1.2 bus2=p1rlv9.1.2 switch=n enabled=y phases=2 Linecode=1P_UG_AL_1/0_Brenau_2

New Line.l(r:p1rlv10-rdt6lv) Units=km Length=0.0199667 bus1=rdt6lv.1.2 bus2=p1rlv10.1.2 switch=n enabled=y phases=2 Linecode=1P_UG_AL_1/0_Brenau_2

New Line.l(r:p1rlv11-rdt7lv) Units=km Length=0.019399000000000003 bus1=rdt7lv.1.2 bus2=p1rlv11.1.2 switch=n enabled=y phases=2 Linecode=1P_UG_AL_1/0_Brenau_2

New Line.l(r:p1rlv12-rdt8lv) Units=km Length=0.0187983 bus1=rdt8lv.1.2 bus2=p1rlv12.1.2 switch=n enabled=y phases=2 Linecode=1P_UG_AL_1/0_Brenau_2

New Line.l(r:p1rlv13-rdm12) Units=km Length=0.0227819 bus1=rdm12.1.2 bus2=p1rlv13.1.2 switch=n enabled=y phases=2 Linecode=1P_UG_AL_1/0_Brenau_2

New Line.l(r:rdm12-rdt9lv) Units=km Length=0.0372937 bus1=rdt9lv.1.2 bus2=rdm12.1.2 switch=n enabled=y phases=2 Linecode=1P_UG_AL_1/0_Brenau_2

New Line.l(r:p1rlv22-rdm13) Units=km Length=0.0146367 bus1=rdm13.1.2 bus2=p1rlv22.1.2 switch=n enabled=y phases=2 Linecode=1P_UG_AL_1/0_Brenau_2

New Line.l(r:rdm13-rdt9lv) Units=km Length=0.0461539 bus1=rdt9lv.1.2 bus2=rdm13.1.2 switch=n enabled=y phases=2 Linecode=1P_UG_AL_1/0_Brenau_2

New Line.l(r:p1rlv14-rdm14) Units=km Length=0.05821010000000001 bus1=rdm14.1.2 bus2=p1rlv14.1.2 switch=n enabled=y phases=2 Linecode=1P_UG_AL_1/0_Brenau_2

New Line.l(r:p1rlv17-rdm14) Units=km Length=0.015692 bus1=rdm14.1.2 bus2=p1rlv17.1.2 switch=n enabled=y phases=2 Linecode=1P_UG_AL_1/0_Brenau_2

New Line.l(r:rdm14-rdt10lv) Units=km Length=0.00937636 bus1=rdt10lv.1.2 bus2=rdm14.1.2 switch=n enabled=y phases=2 Linecode=1P_UG_AL_2/0_Converse_2

New Line.l(r:p1rlv15-rdm15) Units=km Length=0.0617463 bus1=rdm15.1.2 bus2=p1rlv15.1.2 switch=n enabled=y phases=2 Linecode=1P_UG_AL_1/0_Brenau_2

New Line.l(r:rdm15-rdt10lv) Units=km Length=0.028743200000000003 bus1=rdt10lv.1.2 bus2=rdm15.1.2 switch=n enabled=y phases=2 Linecode=1P_UG_AL_1/0_Brenau_2

New Line.l(r:p1rlv16-rdt11lv) Units=km Length=0.0178794 bus1=rdt11lv.1.2 bus2=p1rlv16.1.2 switch=n enabled=y phases=2 Linecode=1P_UG_AL_1/0_Brenau_2

New Line.l(r:p1rlv18-rdt11lv) Units=km Length=0.0243261 bus1=rdt11lv.1.2 bus2=p1rlv18.1.2 switch=n enabled=y phases=2 Linecode=1P_UG_AL_1/0_Brenau_2

New Line.l(r:p1rlv20-rdt12lv) Units=km Length=0.0402155 bus1=rdt12lv.1.2 bus2=p1rlv20.1.2 switch=n enabled=y phases=2 Linecode=1P_UG_AL_1/0_Brenau_2

New Line.l(r:p1rlv19-rdm19) Units=km Length=0.027671900000000003 bus1=rdm19.1.2 bus2=p1rlv19.1.2 switch=n enabled=y phases=2 Linecode=1P_UG_AL_1/0_Brenau_2

New Line.l(r:rdm19-rdt12lv) Units=km Length=0.018758700000000003 bus1=rdt12lv.1.2 bus2=rdm19.1.2 switch=n enabled=y phases=2 Linecode=1P_UG_AL_1/0_Brenau_2

New Line.l(r:p1rlv21-rdm21) Units=km Length=0.0215538 bus1=rdm21.1.2 bus2=p1rlv21.1.2 switch=n enabled=y phases=2 Linecode=1P_UG_AL_1/0_Brenau_2

New Line.l(r:rdm21-rdt12lv) Units=km Length=0.06084330000000001 bus1=rdt12lv.1.2 bus2=rdm21.1.2 switch=n enabled=y phases=2 Linecode=1P_UG_AL_1/0_Brenau_2

New Line.l(r:p1rlv23-rdt13lv) Units=km Length=0.0251681 bus1=rdt13lv.1.2 bus2=p1rlv23.1.2 switch=n enabled=y phases=2 Linecode=1P_UG_AL_1/0_Brenau_2

New Line.l(r:p1rlv24-rdm23) Units=km Length=0.0325623 bus1=rdm23.1.2 bus2=p1rlv24.1.2 switch=n enabled=y phases=2 Linecode=1P_UG_AL_1/0_Brenau_2

New Line.l(r:rdm23-rdt14lv) Units=km Length=0.0195574 bus1=rdt14lv.1.2 bus2=rdm23.1.2 switch=n enabled=y phases=2 Linecode=1P_UG_AL_1/0_Brenau_2

New Line.l(r:p1rlv25-rdm24) Units=km Length=0.0294133 bus1=rdm24.1.2 bus2=p1rlv25.1.2 switch=n enabled=y phases=2 Linecode=1P_UG_AL_1/0_Brenau_2

New Line.l(r:rdm24-rdt14lv) Units=km Length=0.00992627 bus1=rdt14lv.1.2 bus2=rdm24.1.2 switch=n enabled=y phases=2 Linecode=1P_UG_AL_1/0_Brenau_2

New Line.l(r:p1rlv26-rdm25) Units=km Length=0.0309144 bus1=rdm25.1.2 bus2=p1rlv26.1.2 switch=n enabled=y phases=2 Linecode=1P_UG_AL_1/0_Brenau_2

New Line.l(r:p1rlv27-rdm26) Units=km Length=0.0320607 bus1=rdm26.1.2 bus2=p1rlv27.1.2 switch=n enabled=y phases=2 Linecode=1P_UG_AL_1/0_Brenau_2

New Line.l(r:rdm25-rdm26) Units=km Length=0.0093602 bus1=rdm25.1.2 bus2=rdm26.1.2 switch=n enabled=y phases=2 Linecode=1P_UG_AL_1/0_Brenau_2

New Line.l(r:rdm25-rdt15lv) Units=km Length=0.00937431 bus1=rdt15lv.1.2 bus2=rdm25.1.2 switch=n enabled=y phases=2 Linecode=1P_UG_AL_1/0_Brenau_2

New Line.l(r:p1rlv28-rdm27) Units=km Length=0.0346772 bus1=rdm27.1.2 bus2=p1rlv28.1.2 switch=n enabled=y phases=2 Linecode=1P_UG_AL_1/0_Brenau_2

New Line.l(r:p1rlv29-rdm28) Units=km Length=0.035066 bus1=rdm28.1.2 bus2=p1rlv29.1.2 switch=n enabled=y phases=2 Linecode=1P_UG_AL_1/0_Brenau_2

New Line.l(r:rdm27-rdm28) Units=km Length=0.0198457 bus1=rdm27.1.2 bus2=rdm28.1.2 switch=n enabled=y phases=2 Linecode=1P_UG_AL_1/0_Brenau_2

New Line.l(r:rdm27-rdt15lv) Units=km Length=0.0093668 bus1=rdt15lv.1.2 bus2=rdm27.1.2 switch=n enabled=y phases=2 Linecode=1P_UG_AL_1/0_Brenau_2

New Line.l(r:p1rlv31-rdm30) Units=km Length=0.012969 bus1=rdm30.1.2 bus2=p1rlv31.1.2 switch=n enabled=y phases=2 Linecode=1P_UG_AL_1/0_Brenau_2

New Line.l(r:p1rlv30-rdm29) Units=km Length=0.027247 bus1=rdm29.1.2 bus2=p1rlv30.1.2 switch=n enabled=y phases=2 Linecode=1P_UG_AL_1/0_Brenau_2

New Line.l(r:rdm29-rdm30) Units=km Length=0.0923753 bus1=rdm30.1.2 bus2=rdm29.1.2 switch=n enabled=y phases=2 Linecode=1P_UG_AL_1/0_Brenau_2

New Line.l(r:rdm30-rdt16lv) Units=km Length=0.00735228 bus1=rdt16lv.1.2 bus2=rdm30.1.2 switch=n enabled=y phases=2 Linecode=1P_UG_AL_1/0_Brenau_2

New Line.l(r:p1rlv32-rdm31) Units=km Length=0.0179441 bus1=rdm31.1.2 bus2=p1rlv32.1.2 switch=n enabled=y phases=2 Linecode=1P_UG_AL_1/0_Brenau_2

New Line.l(r:rdm31-rdt16lv) Units=km Length=0.0146956 bus1=rdt16lv.1.2 bus2=rdm31.1.2 switch=n enabled=y phases=2 Linecode=1P_UG_AL_1/0_Brenau_2

New Line.l(r:p1rlv33-rdm32) Units=km Length=0.0357213 bus1=rdm32.1.2 bus2=p1rlv33.1.2 switch=n enabled=y phases=2 Linecode=1P_UG_AL_1/0_Brenau_2

New Line.l(r:rdm32-rdt17lv) Units=km Length=0.00604934 bus1=rdt17lv.1.2 bus2=rdm32.1.2 switch=n enabled=y phases=2 Linecode=1P_UG_AL_1/0_Brenau_2

New Line.l(r:p1rlv34-rdm33) Units=km Length=0.032312 bus1=rdm33.1.2 bus2=p1rlv34.1.2 switch=n enabled=y phases=2 Linecode=1P_UG_AL_1/0_Brenau_2

New Line.l(r:rdm33-rdt17lv) Units=km Length=0.0160425 bus1=rdt17lv.1.2 bus2=rdm33.1.2 switch=n enabled=y phases=2 Linecode=1P_UG_AL_1/0_Brenau_2

New Line.l(r:p1rlv35-rdm34) Units=km Length=0.0340443 bus1=rdm34.1.2 bus2=p1rlv35.1.2 switch=n enabled=y phases=2 Linecode=1P_UG_AL_1/0_Brenau_2

New Line.l(r:rdm34-rdt18lv) Units=km Length=0.014111 bus1=rdt18lv.1.2 bus2=rdm34.1.2 switch=n enabled=y phases=2 Linecode=1P_UG_AL_1/0_Brenau_2

New Line.l(r:p1rlv36-rdm35) Units=km Length=0.0362687 bus1=rdm35.1.2 bus2=p1rlv36.1.2 switch=n enabled=y phases=2 Linecode=1P_UG_AL_1/0_Brenau_2

New Line.l(r:p1rlv37-rdm36) Units=km Length=0.0221785 bus1=rdm36.1.2 bus2=p1rlv37.1.2 switch=n enabled=y phases=2 Linecode=1P_UG_AL_1/0_Brenau_2

New Line.l(r:rdm35-rdm36) Units=km Length=0.00640824 bus1=rdm35.1.2 bus2=rdm36.1.2 switch=n enabled=y phases=2 Linecode=1P_UG_AL_1/0_Brenau_2

New Line.l(r:rdm35-rdt18lv) Units=km Length=0.00640824 bus1=rdt18lv.1.2 bus2=rdm35.1.2 switch=n enabled=y phases=2 Linecode=1P_UG_AL_1/0_Brenau_2

New Line.l(r:p1rlv39-rdt19lv) Units=km Length=0.0208279 bus1=rdt19lv.1.2 bus2=p1rlv39.1.2 switch=n enabled=y phases=2 Linecode=1P_UG_AL_1/0_Brenau_2

New Line.l(r:p1rlv38-rdm37) Units=km Length=0.0180959 bus1=rdm37.1.2 bus2=p1rlv38.1.2 switch=n enabled=y phases=2 Linecode=1P_UG_AL_1/0_Brenau_2

New Line.l(r:p1rlv40-rdm39) Units=km Length=0.0263987 bus1=rdm39.1.2 bus2=p1rlv40.1.2 switch=n enabled=y phases=2 Linecode=1P_UG_AL_1/0_Brenau_2

New Line.l(r:rdm37-rdm39) Units=km Length=0.0436654 bus1=rdm37.1.2 bus2=rdm39.1.2 switch=n enabled=y phases=2 Linecode=1P_UG_AL_1/0_Brenau_2

New Line.l(r:rdm37-rdt19lv) Units=km Length=0.0086552 bus1=rdt19lv.1.2 bus2=rdm37.1.2 switch=n enabled=y phases=2 Linecode=1P_UG_AL_2/0_Converse_2

New Line.l(r:p1rlv41-rdt20lv) Units=km Length=0.0216632 bus1=rdt20lv.1.2 bus2=p1rlv41.1.2 switch=n enabled=y phases=2 Linecode=1P_UG_AL_2/0_Converse_2

New Line.l(r:p1rlv42-rdt21lv) Units=km Length=0.0364543 bus1=rdt21lv.1.2 bus2=p1rlv42.1.2 switch=n enabled=y phases=2 Linecode=1P_UG_AL_1/0_Brenau_2

New Line.l(r:p1rlv43-rdm42) Units=km Length=0.019978 bus1=rdm42.1.2 bus2=p1rlv43.1.2 switch=n enabled=y phases=2 Linecode=1P_UG_AL_1/0_Brenau_2

New Line.l(r:rdm42-rdt22lv) Units=km Length=0.0227634 bus1=rdt22lv.1.2 bus2=rdm42.1.2 switch=n enabled=y phases=2 Linecode=1P_UG_AL_1/0_Brenau_2

New Line.l(r:p1rlv44-rdm43) Units=km Length=0.00944488 bus1=rdm43.1.2 bus2=p1rlv44.1.2 switch=n enabled=y phases=2 Linecode=1P_OH_AL_2/0_Rucina_2

New Line.l(r:rdm43-rdt22lv) Units=km Length=0.0303663 bus1=rdt22lv.1.2 bus2=rdm43.1.2 switch=n enabled=y phases=2 Linecode=1P_OH_AL_4/0_Zuzara_2

New Line.l(r:p1rlv45-rdt23lv) Units=km Length=0.0239824 bus1=rdt23lv.1.2 bus2=p1rlv45.1.2 switch=n enabled=y phases=2 Linecode=1P_OH_AL_2/0_Rucina_2

New Line.l(r:p1rlv56-rdt23lv) Units=km Length=0.0159325 bus1=rdt23lv.1.2 bus2=p1rlv56.1.2 switch=n enabled=y phases=2 Linecode=1P_OH_AL_2/0_Rucina_2

New Line.l(r:p1rlv47-rdt24lv) Units=km Length=0.0188484 bus1=rdt24lv.1.2 bus2=p1rlv47.1.2 switch=n enabled=y phases=2 Linecode=1P_UG_AL_1/0_Brenau_2

New Line.l(r:p1rlv46-rdm46) Units=km Length=0.0147948 bus1=rdm46.1.2 bus2=p1rlv46.1.2 switch=n enabled=y phases=2 Linecode=1P_UG_AL_1/0_Brenau_2

New Line.l(r:rdm46-rdt24lv) Units=km Length=0.00927623 bus1=rdt24lv.1.2 bus2=rdm46.1.2 switch=n enabled=y phases=2 Linecode=1P_UG_AL_1/0_Brenau_2

New Line.l(r:p1rlv48-rdm48) Units=km Length=0.0247935 bus1=rdm48.1.2 bus2=p1rlv48.1.2 switch=n enabled=y phases=2 Linecode=1P_UG_AL_1/0_Brenau_2

New Line.l(r:p1rlv54-rdm48) Units=km Length=0.0158987 bus1=rdm48.1.2 bus2=p1rlv54.1.2 switch=n enabled=y phases=2 Linecode=1P_UG_AL_1/0_Brenau_2

New Line.l(r:rdm48-rdt25lv) Units=km Length=0.00949279 bus1=rdt25lv.1.2 bus2=rdm48.1.2 switch=n enabled=y phases=2 Linecode=1P_UG_AL_1/0_Brenau_2

New Line.l(r:p1rlv55-rdm50) Units=km Length=0.0176398 bus1=rdm50.1.2 bus2=p1rlv55.1.2 switch=n enabled=y phases=2 Linecode=1P_UG_AL_1/0_Brenau_2

New Line.l(r:rdm50-rdt25lv) Units=km Length=0.00927623 bus1=rdt25lv.1.2 bus2=rdm50.1.2 switch=n enabled=y phases=2 Linecode=1P_UG_AL_1/0_Brenau_2

New Line.l(r:p1rlv50-rdt26lv) Units=km Length=0.0217115 bus1=rdt26lv.1.2 bus2=p1rlv50.1.2 switch=n enabled=y phases=2 Linecode=1P_UG_AL_1/0_Brenau_2

New Line.l(r:p1rlv49-rdm51) Units=km Length=0.0196132 bus1=rdm51.1.2 bus2=p1rlv49.1.2 switch=n enabled=y phases=2 Linecode=1P_UG_AL_1/0_Brenau_2

New Line.l(r:p1rlv53-rdm51) Units=km Length=0.015383 bus1=rdm51.1.2 bus2=p1rlv53.1.2 switch=n enabled=y phases=2 Linecode=1P_UG_AL_1/0_Brenau_2

New Line.l(r:rdm51-rdt26lv) Units=km Length=0.009500930000000001 bus1=rdt26lv.1.2 bus2=rdm51.1.2 switch=n enabled=y phases=2 Linecode=1P_UG_AL_1/0_Brenau_2

New Line.l(r:p1rlv51-rdm53) Units=km Length=0.0203502 bus1=rdm53.1.2 bus2=p1rlv51.1.2 switch=n enabled=y phases=2 Linecode=1P_UG_AL_1/0_Brenau_2

New Line.l(r:rdm53-rdt26lv) Units=km Length=0.027721 bus1=rdt26lv.1.2 bus2=rdm53.1.2 switch=n enabled=y phases=2 Linecode=1P_UG_AL_1/0_Brenau_2

New Line.l(r:p1rlv52-rdt27lv) Units=km Length=0.0025143600000000006 bus1=rdt27lv.1.2 bus2=p1rlv52.1.2 switch=n enabled=y phases=2 Linecode=1P_UG_AL_1/0_Brenau_2

New Line.l(r:p1rlv57-rdt28lv) Units=km Length=0.0146777 bus1=rdt28lv.1.2 bus2=p1rlv57.1.2 switch=n enabled=y phases=2 Linecode=1P_OH_AL_2/0_Rucina_2

New Line.l(r:p1rlv58-rdt28lv) Units=km Length=0.0344556 bus1=rdt28lv.1.2 bus2=p1rlv58.1.2 switch=n enabled=y phases=2 Linecode=1P_OH_AL_4/0_Zuzara_2

New Line.l(r:p1rlv59-rdm58) Units=km Length=0.04478240000000001 bus1=rdm58.1.2 bus2=p1rlv59.1.2 switch=n enabled=y phases=2 Linecode=1P_OH_AL_4/0_Zuzara_2

New Line.l(r:rdm58-rdt28lv) Units=km Length=0.0123764 bus1=rdt28lv.1.2 bus2=rdm58.1.2 switch=n enabled=y phases=2 Linecode=1P_OH_AL_2/0_Rucina_2

New Line.l(r:p1rlv74-rdt29lv) Units=km Length=0.0309005 bus1=rdt29lv.1.2 bus2=p1rlv74.1.2 switch=n enabled=y phases=2 Linecode=1P_OH_AL_4/0_Zuzara_2

New Line.l(r:p1rlv60-rdm59) Units=km Length=0.0180231 bus1=rdm59.1.2 bus2=p1rlv60.1.2 switch=n enabled=y phases=2 Linecode=1P_OH_AL_2/0_Rucina_2

New Line.l(r:rdm59-rdt29lv) Units=km Length=0.056652900000000006 bus1=rdt29lv.1.2 bus2=rdm59.1.2 switch=n enabled=y phases=2 Linecode=1P_OH_AL_4/0_Zuzara_2

New Line.l(r:p1rlv61-rdm60) Units=km Length=0.0269658 bus1=rdm60.1.2 bus2=p1rlv61.1.2 switch=n enabled=y phases=2 Linecode=1P_OH_AL_2/0_Rucina_2

New Line.l(r:rdm60-rdt29lv) Units=km Length=0.015516 bus1=rdt29lv.1.2 bus2=rdm60.1.2 switch=n enabled=y phases=2 Linecode=1P_OH_AL_2/0_Rucina_2

New Line.l(r:p1rlv63-rdt30lv) Units=km Length=0.0257025 bus1=rdt30lv.1.2 bus2=p1rlv63.1.2 switch=n enabled=y phases=2 Linecode=1P_OH_AL_2/0_Rucina_2

New Line.l(r:p1rlv62-rdm62) Units=km Length=0.026634 bus1=rdm62.1.2 bus2=p1rlv62.1.2 switch=n enabled=y phases=2 Linecode=1P_OH_AL_2/0_Rucina_2

New Line.l(r:rdm62-rdt30lv) Units=km Length=0.013904600000000001 bus1=rdt30lv.1.2 bus2=rdm62.1.2 switch=n enabled=y phases=2 Linecode=1P_OH_AL_2/0_Rucina_2

New Line.l(r:p1rlv64-rdm64) Units=km Length=0.024679700000000002 bus1=rdm64.1.2 bus2=p1rlv64.1.2 switch=n enabled=y phases=2 Linecode=1P_OH_AL_2/0_Rucina_2

New Line.l(r:rdm64-rdt30lv) Units=km Length=0.027809200000000003 bus1=rdt30lv.1.2 bus2=rdm64.1.2 switch=n enabled=y phases=2 Linecode=1P_OH_AL_4/0_Zuzara_2

New Line.l(r:p1rlv65-rdt31lv) Units=km Length=0.0249162 bus1=rdt31lv.1.2 bus2=p1rlv65.1.2 switch=n enabled=y phases=2 Linecode=1P_OH_AL_2/0_Rucina_2

New Line.l(r:p1rlv66-rdm66) Units=km Length=0.0311865 bus1=rdm66.1.2 bus2=p1rlv66.1.2 switch=n enabled=y phases=2 Linecode=1P_OH_AL_4/0_Zuzara_2

New Line.l(r:p1rlv67-rdm67) Units=km Length=0.0302837 bus1=rdm67.1.2 bus2=p1rlv67.1.2 switch=n enabled=y phases=2 Linecode=1P_OH_AL_4/0_Zuzara_2

New Line.l(r:rdm66-rdm67) Units=km Length=0.0184313 bus1=rdm66.1.2 bus2=rdm67.1.2 switch=n enabled=y phases=2 Linecode=1P_OH_AL_2/0_Rucina_2

New Line.l(r:rdm66-rdt31lv) Units=km Length=0.036851 bus1=rdt31lv.1.2 bus2=rdm66.1.2 switch=n enabled=y phases=2 Linecode=1P_OH_AL_4/0_Zuzara_2

New Line.l(r:p1rlv99-rdm68) Units=km Length=0.0283875 bus1=rdm68.1.2 bus2=p1rlv99.1.2 switch=n enabled=y phases=2 Linecode=1P_OH_AL_4/0_Zuzara_2

New Line.l(r:rdm68-rdt31lv) Units=km Length=0.05195290000000001 bus1=rdt31lv.1.2 bus2=rdm68.1.2 switch=n enabled=y phases=2 Linecode=1P_OH_AL_4/0_Zuzara_2

New Line.l(r:p1rlv70-rdt32lv) Units=km Length=0.0356664 bus1=rdt32lv.1.2 bus2=p1rlv70.1.2 switch=n enabled=y phases=2 Linecode=1P_OH_AL_4/0_Zuzara_2

New Line.l(r:p1rlv69-rdm70) Units=km Length=0.0277755 bus1=rdm70.1.2 bus2=p1rlv69.1.2 switch=n enabled=y phases=2 Linecode=1P_OH_AL_4/0_Zuzara_2

New Line.l(r:p1rlv68-rdm69) Units=km Length=0.0284938 bus1=rdm69.1.2 bus2=p1rlv68.1.2 switch=n enabled=y phases=2 Linecode=1P_OH_AL_4/0_Zuzara_2

New Line.l(r:rdm69-rdm70) Units=km Length=0.0195479 bus1=rdm70.1.2 bus2=rdm69.1.2 switch=n enabled=y phases=2 Linecode=1P_OH_AL_2/0_Rucina_2

New Line.l(r:rdm70-rdt32lv) Units=km Length=0.0195562 bus1=rdt32lv.1.2 bus2=rdm70.1.2 switch=n enabled=y phases=2 Linecode=1P_OH_AL_2/0_Rucina_2

New Line.l(r:p1rlv71-rdm72) Units=km Length=0.0295931 bus1=rdm72.1.2 bus2=p1rlv71.1.2 switch=n enabled=y phases=2 Linecode=1P_OH_AL_4/0_Zuzara_2

New Line.l(r:p1rlv72-rdm73) Units=km Length=0.03307 bus1=rdm73.1.2 bus2=p1rlv72.1.2 switch=n enabled=y phases=2 Linecode=1P_OH_AL_4/0_Zuzara_2

New Line.l(r:rdm72-rdm73) Units=km Length=0.013904600000000001 bus1=rdm72.1.2 bus2=rdm73.1.2 switch=n enabled=y phases=2 Linecode=1P_OH_AL_2/0_Rucina_2

New Line.l(r:rdm72-rdt32lv) Units=km Length=0.013904600000000001 bus1=rdt32lv.1.2 bus2=rdm72.1.2 switch=n enabled=y phases=2 Linecode=1P_OH_AL_2/0_Rucina_2

New Line.l(r:p1rlv73-rdt33lv) Units=km Length=0.0279593 bus1=rdt33lv.1.2 bus2=p1rlv73.1.2 switch=n enabled=y phases=2 Linecode=1P_OH_AL_4/0_Zuzara_2

New Line.l(r:p1rlv75-rdt34lv) Units=km Length=0.0244725 bus1=rdt34lv.1.2 bus2=p1rlv75.1.2 switch=n enabled=y phases=2 Linecode=1P_OH_AL_2/0_Rucina_2

New Line.l(r:p1rlv76-rdt35lv) Units=km Length=0.0241513 bus1=rdt35lv.1.2 bus2=p1rlv76.1.2 switch=n enabled=y phases=2 Linecode=1P_OH_AL_2/0_Rucina_2

New Line.l(r:p1rlv78-rdm78) Units=km Length=0.05463520000000001 bus1=rdm78.1.2 bus2=p1rlv78.1.2 switch=n enabled=y phases=2 Linecode=1P_UG_AL_1/0_Brenau_2

New Line.l(r:p1rlv79-rdm78) Units=km Length=0.038665500000000005 bus1=rdm78.1.2 bus2=p1rlv79.1.2 switch=n enabled=y phases=2 Linecode=1P_UG_AL_1/0_Brenau_2

New Line.l(r:p1rlv77-rdm77) Units=km Length=0.0245664 bus1=rdm77.1.2 bus2=p1rlv77.1.2 switch=n enabled=y phases=2 Linecode=1P_UG_AL_1/0_Brenau_2

New Line.l(r:rdm77-rdm78) Units=km Length=0.017672 bus1=rdm78.1.2 bus2=rdm77.1.2 switch=n enabled=y phases=2 Linecode=1P_UG_AL_1/0_Brenau_2

New Line.l(r:rdm78-rdt36lv) Units=km Length=0.0088358 bus1=rdt36lv.1.2 bus2=rdm78.1.2 switch=n enabled=y phases=2 Linecode=1P_UG_AL_4/0_Sweetbriar_2

New Line.l(r:p1rlv80-rdm80) Units=km Length=0.0379546 bus1=rdm80.1.2 bus2=p1rlv80.1.2 switch=n enabled=y phases=2 Linecode=1P_UG_AL_1/0_Brenau_2

New Line.l(r:p1rlv96-rdm81) Units=km Length=0.0259945 bus1=rdm81.1.2 bus2=p1rlv96.1.2 switch=n enabled=y phases=2 Linecode=1P_UG_AL_1/0_Brenau_2

New Line.l(r:rdm80-rdm81) Units=km Length=0.00884579 bus1=rdm80.1.2 bus2=rdm81.1.2 switch=n enabled=y phases=2 Linecode=1P_UG_AL_1/0_Brenau_2

New Line.l(r:rdm80-rdt36lv) Units=km Length=0.017672300000000002 bus1=rdt36lv.1.2 bus2=rdm80.1.2 switch=n enabled=y phases=2 Linecode=1P_UG_AL_1/0_Brenau_2

New Line.l(r:p1rlv81-rdm82) Units=km Length=0.0304119 bus1=rdm82.1.2 bus2=p1rlv81.1.2 switch=n enabled=y phases=2 Linecode=1P_UG_AL_1/0_Brenau_2

New Line.l(r:rdm82-rdt37lv) Units=km Length=0.0180951 bus1=rdt37lv.1.2 bus2=rdm82.1.2 switch=n enabled=y phases=2 Linecode=1P_UG_AL_1/0_Brenau_2

New Line.l(r:p1rlv82-rdm83) Units=km Length=0.0289084 bus1=rdm83.1.2 bus2=p1rlv82.1.2 switch=n enabled=y phases=2 Linecode=1P_UG_AL_1/0_Brenau_2

New Line.l(r:rdm83-rdt37lv) Units=km Length=0.00974002 bus1=rdt37lv.1.2 bus2=rdm83.1.2 switch=n enabled=y phases=2 Linecode=1P_UG_AL_1/0_Brenau_2

New Line.l(r:p1rlv83-rdm84) Units=km Length=0.0463902 bus1=rdm84.1.2 bus2=p1rlv83.1.2 switch=n enabled=y phases=2 Linecode=1P_UG_AL_1/0_Brenau_2

New Line.l(r:p1rlv84-rdm84) Units=km Length=0.03320780000000001 bus1=rdm84.1.2 bus2=p1rlv84.1.2 switch=n enabled=y phases=2 Linecode=1P_UG_AL_1/0_Brenau_2

New Line.l(r:rdm84-rdt38lv) Units=km Length=0.00983588 bus1=rdt38lv.1.2 bus2=rdm84.1.2 switch=n enabled=y phases=2 Linecode=1P_UG_AL_1/0_Brenau_2

New Line.l(r:p1rlv85-rdm86) Units=km Length=0.0301549 bus1=rdm86.1.2 bus2=p1rlv85.1.2 switch=n enabled=y phases=2 Linecode=1P_UG_AL_1/0_Brenau_2

New Line.l(r:rdm86-rdt38lv) Units=km Length=0.00983588 bus1=rdt38lv.1.2 bus2=rdm86.1.2 switch=n enabled=y phases=2 Linecode=1P_UG_AL_1/0_Brenau_2

New Line.l(r:p1rlv155-rdm88) Units=km Length=0.0235381 bus1=rdm88.1.2 bus2=p1rlv155.1.2 switch=n enabled=y phases=2 Linecode=1P_UG_AL_1/0_Brenau_2

New Line.l(r:p1rlv86-rdm87) Units=km Length=0.0122391 bus1=rdm87.1.2 bus2=p1rlv86.1.2 switch=n enabled=y phases=2 Linecode=1P_UG_AL_1/0_Brenau_2

New Line.l(r:rdm87-rdm88) Units=km Length=0.0285128 bus1=rdm88.1.2 bus2=rdm87.1.2 switch=n enabled=y phases=2 Linecode=1P_UG_AL_1/0_Brenau_2

New Line.l(r:rdm88-rdt39lv) Units=km Length=0.00982588 bus1=rdt39lv.1.2 bus2=rdm88.1.2 switch=n enabled=y phases=2 Linecode=1P_UG_AL_2/0_Converse_2

New Line.l(r:p1rlv88-rdt40lv) Units=km Length=0.0289764 bus1=rdt40lv.1.2 bus2=p1rlv88.1.2 switch=n enabled=y phases=2 Linecode=1P_UG_AL_1/0_Brenau_2

New Line.l(r:p1rlv89-rdm91) Units=km Length=0.0294058 bus1=rdm91.1.2 bus2=p1rlv89.1.2 switch=n enabled=y phases=2 Linecode=1P_UG_AL_1/0_Brenau_2

New Line.l(r:rdm91-rdt40lv) Units=km Length=0.048073000000000005 bus1=rdt40lv.1.2 bus2=rdm91.1.2 switch=n enabled=y phases=2 Linecode=1P_UG_AL_1/0_Brenau_2

New Line.l(r:p1rlv157-rdm93) Units=km Length=0.0286035 bus1=rdm93.1.2 bus2=p1rlv157.1.2 switch=n enabled=y phases=2 Linecode=1P_UG_AL_1/0_Brenau_2

New Line.l(r:p1rlv93-rdm92) Units=km Length=0.056373 bus1=rdm92.1.2 bus2=p1rlv93.1.2 switch=n enabled=y phases=2 Linecode=1P_UG_AL_1/0_Brenau_2

New Line.l(r:p1rlv87-rdm89) Units=km Length=0.0307581 bus1=rdm89.1.2 bus2=p1rlv87.1.2 switch=n enabled=y phases=2 Linecode=1P_UG_AL_1/0_Brenau_2

New Line.l(r:rdm89-rdm92) Units=km Length=0.00888441 bus1=rdm92.1.2 bus2=rdm89.1.2 switch=n enabled=y phases=2 Linecode=1P_UG_AL_1/0_Brenau_2

New Line.l(r:rdm92-rdm93) Units=km Length=0.00887411 bus1=rdm93.1.2 bus2=rdm92.1.2 switch=n enabled=y phases=2 Linecode=1P_UG_AL_1/0_Brenau_2

New Line.l(r:rdm93-rdt40lv) Units=km Length=0.0088841 bus1=rdt40lv.1.2 bus2=rdm93.1.2 switch=n enabled=y phases=2 Linecode=1P_UG_AL_2/0_Converse_2

New Line.l(r:p1rlv90-rdt41lv) Units=km Length=0.028802800000000003 bus1=rdt41lv.1.2 bus2=p1rlv90.1.2 switch=n enabled=y phases=2 Linecode=1P_UG_AL_1/0_Brenau_2

New Line.l(r:p1rlv160-rdt41lv) Units=km Length=0.0273885 bus1=rdt41lv.1.2 bus2=p1rlv160.1.2 switch=n enabled=y phases=2 Linecode=1P_UG_AL_1/0_Brenau_2

New Line.l(r:p1rlv94-rdt42lv) Units=km Length=0.0561362 bus1=rdt42lv.1.2 bus2=p1rlv94.1.2 switch=n enabled=y phases=2 Linecode=1P_OH_AL_4/0_Zuzara_2

New Line.l(r:p1rlv98-rdt42lv) Units=km Length=0.0254938 bus1=rdt42lv.1.2 bus2=p1rlv98.1.2 switch=n enabled=y phases=2 Linecode=1P_OH_AL_2/0_Rucina_2

New Line.l(r:p1rlv91-rdm96) Units=km Length=0.024406000000000004 bus1=rdm96.1.2 bus2=p1rlv91.1.2 switch=n enabled=y phases=2 Linecode=1P_OH_AL_2/0_Rucina_2

New Line.l(r:p1rlv92-rdm96) Units=km Length=0.0449259 bus1=rdm96.1.2 bus2=p1rlv92.1.2 switch=n enabled=y phases=2 Linecode=1P_OH_AL_4/0_Zuzara_2

New Line.l(r:rdm96-rdt42lv) Units=km Length=0.017005500000000003 bus1=rdt42lv.1.2 bus2=rdm96.1.2 switch=n enabled=y phases=2 Linecode=1P_OH_AL_2/0_Rucina_2

New Line.l(r:p1rlv97-rdm99) Units=km Length=0.0304417 bus1=rdm99.1.2 bus2=p1rlv97.1.2 switch=n enabled=y phases=2 Linecode=1P_OH_AL_4/0_Zuzara_2

New Line.l(r:rdm99-rdt42lv) Units=km Length=0.0340272 bus1=rdt42lv.1.2 bus2=rdm99.1.2 switch=n enabled=y phases=2 Linecode=1P_OH_AL_4/0_Zuzara_2

New Line.l(r:p1rlv95-rdt43lv) Units=km Length=0.0214797 bus1=rdt43lv.1.2 bus2=p1rlv95.1.2 switch=n enabled=y phases=2 Linecode=1P_UG_AL_1/0_Brenau_2

New Line.l(r:p1rlv100-rdt44lv) Units=km Length=0.001 bus1=rdt44lv.1.2 bus2=p1rlv100.1.2 switch=n enabled=y phases=2 Linecode=1P_OH_AL_4_Periwinkle_2

New Line.l(r:p1rlv101-rdt45lv) Units=km Length=0.001 bus1=rdt45lv.1.2 bus2=p1rlv101.1.2 switch=n enabled=y phases=2 Linecode=1P_OH_AL_4_Periwinkle_2

New Line.l(r:p1rlv102-rdt46lv) Units=km Length=0.04614070000000001 bus1=rdt46lv.1.2 bus2=p1rlv102.1.2 switch=n enabled=y phases=2 Linecode=1P_OH_AL_4/0_Zuzara_2

New Line.l(r:p1rlv103-rdt47lv) Units=km Length=0.062109 bus1=rdt47lv.1.2 bus2=p1rlv103.1.2 switch=n enabled=y phases=2 Linecode=1P_OH_AL_4/0_Zuzara_2

New Line.l(r:p1rlv104-rdt48lv) Units=km Length=0.001 bus1=rdt48lv.1.2 bus2=p1rlv104.1.2 switch=n enabled=y phases=2 Linecode=1P_OH_AL_4_Periwinkle_2

New Line.l(r:p1rlv105-rdt49lv) Units=km Length=0.0151761 bus1=rdt49lv.1.2 bus2=p1rlv105.1.2 switch=n enabled=y phases=2 Linecode=1P_OH_AL_2/0_Rucina_2

New Line.l(r:p1rlv106-rdt49lv) Units=km Length=0.0151761 bus1=rdt49lv.1.2 bus2=p1rlv106.1.2 switch=n enabled=y phases=2 Linecode=1P_OH_AL_2/0_Rucina_2

New Line.l(r:p1rlv107-rdm109) Units=km Length=0.112327 bus1=rdm109.1.2 bus2=p1rlv107.1.2 switch=n enabled=y phases=2 Linecode=1P_OH_AL_4/0_Zuzara_2

New Line.l(r:rdm109-rdt50lv) Units=km Length=0.0175749 bus1=rdt50lv.1.2 bus2=rdm109.1.2 switch=n enabled=y phases=2 Linecode=1P_OH_AL_2/0_Rucina_2

New Line.l(r:p1rlv108-rdm110) Units=km Length=0.0758576 bus1=rdm110.1.2 bus2=p1rlv108.1.2 switch=n enabled=y phases=2 Linecode=1P_OH_AL_4/0_Zuzara_2

New Line.l(r:rdm110-rdt50lv) Units=km Length=0.0351498 bus1=rdt50lv.1.2 bus2=rdm110.1.2 switch=n enabled=y phases=2 Linecode=1P_OH_AL_4/0_Zuzara_2

New Line.l(r:p1rlv109-rdt51lv) Units=km Length=0.0467738 bus1=rdt51lv.1.2 bus2=p1rlv109.1.2 switch=n enabled=y phases=2 Linecode=1P_OH_AL_4/0_Zuzara_2

New Line.l(r:p1rlv110-rdt52lv) Units=km Length=0.0156496 bus1=rdt52lv.1.2 bus2=p1rlv110.1.2 switch=n enabled=y phases=2 Linecode=1P_OH_AL_2/0_Rucina_2

New Line.l(r:p1rlv111-rdm113) Units=km Length=0.0484848 bus1=rdm113.1.2 bus2=p1rlv111.1.2 switch=n enabled=y phases=2 Linecode=1P_OH_AL_4/0_Zuzara_2

New Line.l(r:p1rlv113-rdm113) Units=km Length=0.0914243 bus1=rdm113.1.2 bus2=p1rlv113.1.2 switch=n enabled=y phases=2 Linecode=1P_OH_AL_4/0_Zuzara_2

New Line.l(r:rdm113-rdt53lv) Units=km Length=0.0181959 bus1=rdt53lv.1.2 bus2=rdm113.1.2 switch=n enabled=y phases=2 Linecode=1P_OH_AL_2/0_Rucina_2

New Line.l(r:p1rlv112-rdm114) Units=km Length=0.0711303 bus1=rdm114.1.2 bus2=p1rlv112.1.2 switch=n enabled=y phases=2 Linecode=1P_OH_AL_4/0_Zuzara_2

New Line.l(r:rdm114-rdt53lv) Units=km Length=0.0148789 bus1=rdt53lv.1.2 bus2=rdm114.1.2 switch=n enabled=y phases=2 Linecode=1P_OH_AL_2/0_Rucina_2

New Line.l(r:p1rlv115-rdt54lv) Units=km Length=0.0580108 bus1=rdt54lv.1.2 bus2=p1rlv115.1.2 switch=n enabled=y phases=2 Linecode=1P_OH_AL_4/0_Zuzara_2

New Line.l(r:p1rlv116-rdt54lv) Units=km Length=0.0287533 bus1=rdt54lv.1.2 bus2=p1rlv116.1.2 switch=n enabled=y phases=2 Linecode=1P_OH_AL_4/0_Zuzara_2

New Line.l(r:p1rlv114-rdm116) Units=km Length=0.0858145 bus1=rdm116.1.2 bus2=p1rlv114.1.2 switch=n enabled=y phases=2 Linecode=1P_OH_AL_4/0_Zuzara_2

New Line.l(r:rdm116-rdt54lv) Units=km Length=0.0183224 bus1=rdt54lv.1.2 bus2=rdm116.1.2 switch=n enabled=y phases=2 Linecode=1P_OH_AL_2/0_Rucina_2

New Line.l(r:p1rlv117-rdm119) Units=km Length=0.0369086 bus1=rdm119.1.2 bus2=p1rlv117.1.2 switch=n enabled=y phases=2 Linecode=1P_OH_AL_4/0_Zuzara_2

New Line.l(r:rdm119-rdt55lv) Units=km Length=0.0183125 bus1=rdt55lv.1.2 bus2=rdm119.1.2 switch=n enabled=y phases=2 Linecode=1P_OH_AL_2/0_Rucina_2

New Line.l(r:p1rlv118-rdm120) Units=km Length=0.0380737 bus1=rdm120.1.2 bus2=p1rlv118.1.2 switch=n enabled=y phases=2 Linecode=1P_OH_AL_4/0_Zuzara_2

New Line.l(r:rdm120-rdt55lv) Units=km Length=0.0366473 bus1=rdt55lv.1.2 bus2=rdm120.1.2 switch=n enabled=y phases=2 Linecode=1P_OH_AL_4/0_Zuzara_2

New Line.l(r:p1rlv119-rdt56lv) Units=km Length=0.032418 bus1=rdt56lv.1.2 bus2=p1rlv119.1.2 switch=n enabled=y phases=2 Linecode=1P_OH_AL_4/0_Zuzara_2

New Line.l(r:p1rlv120-rdt57lv) Units=km Length=0.039565300000000005 bus1=rdt57lv.1.2 bus2=p1rlv120.1.2 switch=n enabled=y phases=2 Linecode=1P_OH_AL_4/0_Zuzara_2

New Line.l(r:p1rlv121-rdt57lv) Units=km Length=0.0804106 bus1=rdt57lv.1.2 bus2=p1rlv121.1.2 switch=n enabled=y phases=2 Linecode=1P_OH_AL_4/0_Zuzara_2

New Line.l(r:p1rlv122-rdt57lv) Units=km Length=0.147795 bus1=rdt57lv.1.2 bus2=p1rlv122.1.2 switch=n enabled=y phases=2 Linecode=1P_OH_AL_4/0_Zuzara_2

New Line.l(r:p1rlv123-rdt58lv) Units=km Length=0.0386665 bus1=rdt58lv.1.2 bus2=p1rlv123.1.2 switch=n enabled=y phases=2 Linecode=1P_OH_AL_4/0_Zuzara_2

New Line.l(r:p1rlv124-rdt58lv) Units=km Length=0.0386665 bus1=rdt58lv.1.2 bus2=p1rlv124.1.2 switch=n enabled=y phases=2 Linecode=1P_OH_AL_4/0_Zuzara_2

New Line.l(r:p1rlv125-rdt59lv) Units=km Length=0.0500269 bus1=rdt59lv.1.2 bus2=p1rlv125.1.2 switch=n enabled=y phases=2 Linecode=1P_OH_AL_4/0_Zuzara_2

New Line.l(r:p1rlv126-rdt59lv) Units=km Length=0.0184998 bus1=rdt59lv.1.2 bus2=p1rlv126.1.2 switch=n enabled=y phases=2 Linecode=1P_OH_AL_2/0_Rucina_2

New Line.l(r:p1rlv127-rdt59lv) Units=km Length=0.0331722 bus1=rdt59lv.1.2 bus2=p1rlv127.1.2 switch=n enabled=y phases=2 Linecode=1P_OH_AL_4/0_Zuzara_2

New Line.l(r:p1rlv128-rdm130) Units=km Length=0.0354399 bus1=rdm130.1.2 bus2=p1rlv128.1.2 switch=n enabled=y phases=2 Linecode=1P_OH_AL_4/0_Zuzara_2

New Line.l(r:p1rlv134-rdm131)_s0 Units=km Length=0.0795472 bus1=rdm131.1.2 bus2=p1rlv134-rdm131x.1.2 switch=n enabled=y phases=2 Linecode=1P_OH_AL_4/0_Zuzara_2

New Line.l(r:p1rlv134-rdm131)_s1 Units=km Length=0.00791228 bus1=p1rlv134-rdm131x.1.2 bus2=p1rlv134.1.2 switch=n enabled=y phases=2 Linecode=1P_OH_AL_2/0_Rucina_2

New Line.l(r:rdm130-rdm131) Units=km Length=0.127475 bus1=rdm130.1.2 bus2=rdm131.1.2 switch=n enabled=y phases=2 Linecode=1P_OH_AL_4/0_Zuzara_2

New Line.l(r:rdm130-rdt59lv)_s0 Units=km Length=0.08789020000000002 bus1=rdt59lv.1.2 bus2=rdm130-rdt59lvx.1.2 switch=n enabled=y phases=2 Linecode=1P_OH_AL_4/0_Zuzara_2

New Line.l(r:rdm130-rdt59lv)_s1 Units=km Length=0.018475500000000002 bus1=rdm130-rdt59lvx.1.2 bus2=rdm130.1.2 switch=n enabled=y phases=2 Linecode=1P_OH_AL_2/0_Rucina_2

New Line.l(r:p1rlv129-rdt60lv) Units=km Length=0.0369309 bus1=rdt60lv.1.2 bus2=p1rlv129.1.2 switch=n enabled=y phases=2 Linecode=1P_OH_AL_4/0_Zuzara_2

New Line.l(r:p1rlv130-rdt60lv) Units=km Length=0.07794080000000002 bus1=rdt60lv.1.2 bus2=p1rlv130.1.2 switch=n enabled=y phases=2 Linecode=1P_OH_AL_4/0_Zuzara_2

New Line.l(r:p1rlv131-rdt61lv) Units=km Length=0.0388451 bus1=rdt61lv.1.2 bus2=p1rlv131.1.2 switch=n enabled=y phases=2 Linecode=1P_OH_AL_4/0_Zuzara_2

New Line.l(r:p1rlv132-rdm135) Units=km Length=0.0497707 bus1=rdm135.1.2 bus2=p1rlv132.1.2 switch=n enabled=y phases=2 Linecode=1P_OH_AL_4/0_Zuzara_2

New Line.l(r:rdm135-rdt62lv) Units=km Length=0.015538100000000001 bus1=rdt62lv.1.2 bus2=rdm135.1.2 switch=n enabled=y phases=2 Linecode=1P_OH_AL_2/0_Rucina_2

New Line.l(r:p1rlv133-rdm136) Units=km Length=0.0631916 bus1=rdm136.1.2 bus2=p1rlv133.1.2 switch=n enabled=y phases=2 Linecode=1P_OH_AL_4/0_Zuzara_2

New Line.l(r:rdm136-rdt62lv) Units=km Length=0.0178635 bus1=rdt62lv.1.2 bus2=rdm136.1.2 switch=n enabled=y phases=2 Linecode=1P_OH_AL_2/0_Rucina_2

New Line.l(r:p1rlv135-rdt63lv) Units=km Length=0.013738 bus1=rdt63lv.1.2 bus2=p1rlv135.1.2 switch=n enabled=y phases=2 Linecode=1P_OH_AL_2/0_Rucina_2

New Line.l(r:p1rlv136-rdt63lv) Units=km Length=0.013738 bus1=rdt63lv.1.2 bus2=p1rlv136.1.2 switch=n enabled=y phases=2 Linecode=1P_OH_AL_2/0_Rucina_2

New Line.l(r:p1rlv138-rdt64lv) Units=km Length=0.10811100000000001 bus1=rdt64lv.1.2 bus2=p1rlv138.1.2 switch=n enabled=y phases=2 Linecode=1P_OH_AL_4/0_Zuzara_2

New Line.l(r:p1rlv137-rdm139) Units=km Length=0.0524448 bus1=rdm139.1.2 bus2=p1rlv137.1.2 switch=n enabled=y phases=2 Linecode=1P_OH_AL_4/0_Zuzara_2

New Line.l(r:rdm139-rdt64lv) Units=km Length=0.0178735 bus1=rdt64lv.1.2 bus2=rdm139.1.2 switch=n enabled=y phases=2 Linecode=1P_OH_AL_2/0_Rucina_2

New Line.l(r:p1rlv139-rdt65lv) Units=km Length=0.001 bus1=rdt65lv.1.2 bus2=p1rlv139.1.2 switch=n enabled=y phases=2 Linecode=1P_OH_AL_4_Periwinkle_2

New Line.l(r:p1rlv140-rdt66lv) Units=km Length=0.0637017 bus1=rdt66lv.1.2 bus2=p1rlv140.1.2 switch=n enabled=y phases=2 Linecode=1P_OH_AL_4/0_Zuzara_2

New Line.l(r:p1rlv141-rdt67lv) Units=km Length=0.0302031 bus1=rdt67lv.1.2 bus2=p1rlv141.1.2 switch=n enabled=y phases=2 Linecode=1P_OH_AL_4/0_Zuzara_2

New Line.l(r:p1rlv142-rdm144) Units=km Length=0.0230356 bus1=rdm144.1.2 bus2=p1rlv142.1.2 switch=n enabled=y phases=2 Linecode=1P_OH_AL_2/0_Rucina_2

New Line.l(r:rdm144-rdt68lv) Units=km Length=0.019370600000000005 bus1=rdt68lv.1.2 bus2=rdm144.1.2 switch=n enabled=y phases=2 Linecode=1P_OH_AL_2/0_Rucina_2

New Line.l(r:p1rlv143-rdm145) Units=km Length=0.0338623 bus1=rdm145.1.2 bus2=p1rlv143.1.2 switch=n enabled=y phases=2 Linecode=1P_OH_AL_4/0_Zuzara_2

New Line.l(r:rdm145-rdt68lv) Units=km Length=0.0193806 bus1=rdt68lv.1.2 bus2=rdm145.1.2 switch=n enabled=y phases=2 Linecode=1P_OH_AL_2/0_Rucina_2

New Line.l(r:p1rlv144-rdm146) Units=km Length=0.0319766 bus1=rdm146.1.2 bus2=p1rlv144.1.2 switch=n enabled=y phases=2 Linecode=1P_OH_AL_4/0_Zuzara_2

New Line.l(r:rdm146-rdt69lv) Units=km Length=0.0193794 bus1=rdt69lv.1.2 bus2=rdm146.1.2 switch=n enabled=y phases=2 Linecode=1P_OH_AL_2/0_Rucina_2

New Line.l(r:p1rlv145-rdm147) Units=km Length=0.0246258 bus1=rdm147.1.2 bus2=p1rlv145.1.2 switch=n enabled=y phases=2 Linecode=1P_OH_AL_2/0_Rucina_2

New Line.l(r:rdm147-rdt69lv) Units=km Length=0.0193806 bus1=rdt69lv.1.2 bus2=rdm147.1.2 switch=n enabled=y phases=2 Linecode=1P_OH_AL_2/0_Rucina_2

New Line.l(r:p1rlv146-rdm148) Units=km Length=0.0433254 bus1=rdm148.1.2 bus2=p1rlv146.1.2 switch=n enabled=y phases=2 Linecode=1P_UG_AL_1/0_Brenau_2

New Line.l(r:rdm148-rdt70lv) Units=km Length=0.029502800000000003 bus1=rdt70lv.1.2 bus2=rdm148.1.2 switch=n enabled=y phases=2 Linecode=1P_UG_AL_1/0_Brenau_2

New Line.l(r:p1rlv147-rdm149) Units=km Length=0.0193781 bus1=rdm149.1.2 bus2=p1rlv147.1.2 switch=n enabled=y phases=2 Linecode=1P_UG_AL_1/0_Brenau_2

New Line.l(r:rdm149-rdt70lv) Units=km Length=0.019682 bus1=rdt70lv.1.2 bus2=rdm149.1.2 switch=n enabled=y phases=2 Linecode=1P_UG_AL_1/0_Brenau_2

New Line.l(r:p1rlv148-rdt71lv) Units=km Length=0.0644222 bus1=rdt71lv.1.2 bus2=p1rlv148.1.2 switch=n enabled=y phases=2 Linecode=1P_UG_AL_1/0_Brenau_2

New Line.l(r:p1rlv149-rdt72lv) Units=km Length=0.0195919 bus1=rdt72lv.1.2 bus2=p1rlv149.1.2 switch=n enabled=y phases=2 Linecode=1P_UG_AL_1/0_Brenau_2

New Line.l(r:p1rlv152-rdt72lv) Units=km Length=0.022348700000000003 bus1=rdt72lv.1.2 bus2=p1rlv152.1.2 switch=n enabled=y phases=2 Linecode=1P_UG_AL_1/0_Brenau_2

New Line.l(r:p1rlv150-rdm153) Units=km Length=0.0262922 bus1=rdm153.1.2 bus2=p1rlv150.1.2 switch=n enabled=y phases=2 Linecode=1P_UG_AL_1/0_Brenau_2

New Line.l(r:rdm153-rdt73lv) Units=km Length=0.0286301 bus1=rdt73lv.1.2 bus2=rdm153.1.2 switch=n enabled=y phases=2 Linecode=1P_UG_AL_1/0_Brenau_2

New Line.l(r:p1rlv151-rdm154) Units=km Length=0.0381303 bus1=rdm154.1.2 bus2=p1rlv151.1.2 switch=n enabled=y phases=2 Linecode=1P_UG_AL_1/0_Brenau_2

New Line.l(r:rdm154-rdt73lv) Units=km Length=0.0281519 bus1=rdt73lv.1.2 bus2=rdm154.1.2 switch=n enabled=y phases=2 Linecode=1P_UG_AL_1/0_Brenau_2

New Line.l(r:p1rlv153-rdt74lv) Units=km Length=0.0267658 bus1=rdt74lv.1.2 bus2=p1rlv153.1.2 switch=n enabled=y phases=2 Linecode=1P_UG_AL_1/0_Brenau_2

New Line.l(r:p1rlv154-rdt75lv) Units=km Length=0.0291036 bus1=rdt75lv.1.2 bus2=p1rlv154.1.2 switch=n enabled=y phases=2 Linecode=1P_OH_AL_4/0_Zuzara_2

New Line.l(r:p1rlv156-rdt76lv) Units=km Length=0.0240175 bus1=rdt76lv.1.2 bus2=p1rlv156.1.2 switch=n enabled=y phases=2 Linecode=1P_UG_AL_1/0_Brenau_2

New Line.l(r:p1rlv159-rdt77lv) Units=km Length=0.0260425 bus1=rdt77lv.1.2 bus2=p1rlv159.1.2 switch=n enabled=y phases=2 Linecode=1P_UG_AL_1/0_Brenau_2

New Line.l(r:p1rlv158-rdm158) Units=km Length=0.012395 bus1=rdm158.1.2 bus2=p1rlv158.1.2 switch=n enabled=y phases=2 Linecode=1P_UG_AL_1/0_Brenau_2

New Line.l(r:rdm158-rdt77lv) Units=km Length=0.00979225 bus1=rdt77lv.1.2 bus2=rdm158.1.2 switch=n enabled=y phases=2 Linecode=1P_UG_AL_1/0_Brenau_2

New Line.l(r:p1rlv161-rdt78lv) Units=km Length=0.0422243 bus1=rdt78lv.1.2 bus2=p1rlv161.1.2 switch=n enabled=y phases=2 Linecode=1P_UG_AL_1/0_Brenau_2

New Line.l(r:p1rlv162-rdt79lv) Units=km Length=0.0224852 bus1=rdt79lv.1.2 bus2=p1rlv162.1.2 switch=n enabled=y phases=2 Linecode=1P_UG_AL_1/0_Brenau_2

New Line.l(r:p1rlv164-rdt80lv) Units=km Length=0.0207149 bus1=rdt80lv.1.2 bus2=p1rlv164.1.2 switch=n enabled=y phases=2 Linecode=1P_UG_AL_1/0_Brenau_2

New Line.l(r:p1rlv163-rdm162) Units=km Length=0.0299295 bus1=rdm162.1.2 bus2=p1rlv163.1.2 switch=n enabled=y phases=2 Linecode=1P_UG_AL_1/0_Brenau_2

New Line.l(r:rdm162-rdt80lv) Units=km Length=0.0188135 bus1=rdt80lv.1.2 bus2=rdm162.1.2 switch=n enabled=y phases=2 Linecode=1P_UG_AL_1/0_Brenau_2

New Line.l(r:p1rlv165-rdm164) Units=km Length=0.0233729 bus1=rdm164.1.2 bus2=p1rlv165.1.2 switch=n enabled=y phases=2 Linecode=1P_UG_AL_1/0_Brenau_2

New Line.l(r:rdm164-rdt80lv) Units=km Length=0.0286296 bus1=rdt80lv.1.2 bus2=rdm164.1.2 switch=n enabled=y phases=2 Linecode=1P_UG_AL_1/0_Brenau_2

New Line.l(r:p1rlv166-rdm165) Units=km Length=0.0194051 bus1=rdm165.1.2 bus2=p1rlv166.1.2 switch=n enabled=y phases=2 Linecode=1P_UG_AL_1/0_Brenau_2

New Line.l(r:rdm165-rdt81lv) Units=km Length=0.0190863 bus1=rdt81lv.1.2 bus2=rdm165.1.2 switch=n enabled=y phases=2 Linecode=1P_UG_AL_1/0_Brenau_2

New Line.l(r:p1rlv167-rdm166) Units=km Length=0.0334781 bus1=rdm166.1.2 bus2=p1rlv167.1.2 switch=n enabled=y phases=2 Linecode=1P_UG_AL_1/0_Brenau_2

New Line.l(r:rdm166-rdt81lv) Units=km Length=0.0190863 bus1=rdt81lv.1.2 bus2=rdm166.1.2 switch=n enabled=y phases=2 Linecode=1P_UG_AL_1/0_Brenau_2

New Line.l(r:p1rlv168-rdt82lv) Units=km Length=0.0337321 bus1=rdt82lv.1.2 bus2=p1rlv168.1.2 switch=n enabled=y phases=2 Linecode=1P_OH_AL_4/0_Zuzara_2

New Line.l(r:p1rlv169-rdt83lv) Units=km Length=0.0140389 bus1=rdt83lv.1.2 bus2=p1rlv169.1.2 switch=n enabled=y phases=2 Linecode=1P_OH_AL_2/0_Rucina_2

New Line.l(r:p1rlv170-rdt84lv) Units=km Length=0.020856800000000005 bus1=rdt84lv.1.2 bus2=p1rlv170.1.2 switch=n enabled=y phases=2 Linecode=1P_OH_AL_2/0_Rucina_2

New Line.l(r:p1rlv171-rdt85lv) Units=km Length=0.03913520000000001 bus1=rdt85lv.1.2 bus2=p1rlv171.1.2 switch=n enabled=y phases=2 Linecode=1P_OH_AL_4/0_Zuzara_2

New Line.l(r:p1rlv172-rdt86lv) Units=km Length=0.0380326 bus1=rdt86lv.1.2 bus2=p1rlv172.1.2 switch=n enabled=y phases=2 Linecode=1P_UG_AL_2/0_Converse_2

New Line.l(r:p1rlv173-rdt87lv) Units=km Length=0.0564637 bus1=rdt87lv.1.2 bus2=p1rlv173.1.2 switch=n enabled=y phases=2 Linecode=1P_UG_AL_1/0_Brenau_2

New Line.l(r:p1rlv179-rdt88lv) Units=km Length=0.0588666 bus1=rdt88lv.1.2 bus2=p1rlv179.1.2 switch=n enabled=y phases=2 Linecode=1P_UG_AL_1/0_Brenau_2

New Line.l(r:p1rlv175-rdm174) Units=km Length=0.032771 bus1=rdm174.1.2 bus2=p1rlv175.1.2 switch=n enabled=y phases=2 Linecode=1P_UG_AL_1/0_Brenau_2

New Line.l(r:p1rlv180-rdm178) Units=km Length=0.05443 bus1=rdm178.1.2 bus2=p1rlv180.1.2 switch=n enabled=y phases=2 Linecode=1P_UG_AL_1/0_Brenau_2

New Line.l(r:p1rlv174-rdm173) Units=km Length=0.0304732 bus1=rdm173.1.2 bus2=p1rlv174.1.2 switch=n enabled=y phases=2 Linecode=1P_UG_AL_1/0_Brenau_2

New Line.l(r:rdm173-rdm178) Units=km Length=0.0190863 bus1=rdm178.1.2 bus2=rdm173.1.2 switch=n enabled=y phases=2 Linecode=1P_UG_AL_1/0_Brenau_2

New Line.l(r:rdm174-rdm178) Units=km Length=0.00954328 bus1=rdm174.1.2 bus2=rdm178.1.2 switch=n enabled=y phases=2 Linecode=1P_UG_AL_1/0_Brenau_2

New Line.l(r:rdm174-rdt88lv) Units=km Length=0.00954302 bus1=rdt88lv.1.2 bus2=rdm174.1.2 switch=n enabled=y phases=2 Linecode=1P_UG_AL_2/0_Converse_2

New Line.l(r:p1rlv176-rdm175) Units=km Length=0.0295363 bus1=rdm175.1.2 bus2=p1rlv176.1.2 switch=n enabled=y phases=2 Linecode=1P_UG_AL_1/0_Brenau_2

New Line.l(r:p1rlv177-rdm176) Units=km Length=0.021780300000000002 bus1=rdm176.1.2 bus2=p1rlv177.1.2 switch=n enabled=y phases=2 Linecode=1P_UG_AL_1/0_Brenau_2

New Line.l(r:rdm175-rdm176) Units=km Length=0.0278313 bus1=rdm175.1.2 bus2=rdm176.1.2 switch=n enabled=y phases=2 Linecode=1P_UG_AL_1/0_Brenau_2

New Line.l(r:rdm175-rdt88lv) Units=km Length=0.018540900000000003 bus1=rdt88lv.1.2 bus2=rdm175.1.2 switch=n enabled=y phases=2 Linecode=1P_UG_AL_2/0_Converse_2

New Line.l(r:p1rlv178-rdt89lv) Units=km Length=0.0457345 bus1=rdt89lv.1.2 bus2=p1rlv178.1.2 switch=n enabled=y phases=2 Linecode=1P_UG_AL_1/0_Brenau_2

New Line.l(r:p1rlv181-rdt90lv) Units=km Length=0.0733599 bus1=rdt90lv.1.2 bus2=p1rlv181.1.2 switch=n enabled=y phases=2 Linecode=1P_UG_AL_1/0_Brenau_2

New Line.l(r:p1rlv182-rdt91lv) Units=km Length=0.0479312 bus1=rdt91lv.1.2 bus2=p1rlv182.1.2 switch=n enabled=y phases=2 Linecode=1P_UG_AL_1/0_Brenau_2

New Line.l(r:p1rlv183-rdt91lv) Units=km Length=0.0783924 bus1=rdt91lv.1.2 bus2=p1rlv183.1.2 switch=n enabled=y phases=2 Linecode=1P_UG_AL_1/0_Brenau_2

New Line.l(r:p1rlv184-rdm183) Units=km Length=0.106956 bus1=rdm183.1.2 bus2=p1rlv184.1.2 switch=n enabled=y phases=2 Linecode=1P_UG_AL_1/0_Brenau_2

New Line.l(r:rdm183-rdt91lv) Units=km Length=0.00929893 bus1=rdt91lv.1.2 bus2=rdm183.1.2 switch=n enabled=y phases=2 Linecode=1P_UG_AL_1/0_Brenau_2

New Line.l(r:p1rlv186-rdt92lv) Units=km Length=0.0208406 bus1=rdt92lv.1.2 bus2=p1rlv186.1.2 switch=n enabled=y phases=2 Linecode=1P_UG_AL_1/0_Brenau_2

New Line.l(r:p1rlv185-rdm184) Units=km Length=0.0593416 bus1=rdm184.1.2 bus2=p1rlv185.1.2 switch=n enabled=y phases=2 Linecode=1P_UG_AL_1/0_Brenau_2

New Line.l(r:rdm184-rdt92lv) Units=km Length=0.00909869 bus1=rdt92lv.1.2 bus2=rdm184.1.2 switch=n enabled=y phases=2 Linecode=1P_UG_AL_1/0_Brenau_2

New Line.l(r:p1rlv187-rdm186) Units=km Length=0.0143264 bus1=rdm186.1.2 bus2=p1rlv187.1.2 switch=n enabled=y phases=2 Linecode=1P_UG_AL_1/0_Brenau_2

New Line.l(r:rdm186-rdt93lv) Units=km Length=0.0252345 bus1=rdt93lv.1.2 bus2=rdm186.1.2 switch=n enabled=y phases=2 Linecode=1P_UG_AL_1/0_Brenau_2

New Line.l(r:p1rlv203-rdm187) Units=km Length=0.0342342 bus1=rdm187.1.2 bus2=p1rlv203.1.2 switch=n enabled=y phases=2 Linecode=1P_UG_AL_1/0_Brenau_2

New Line.l(r:rdm187-rdt93lv) Units=km Length=0.0342866 bus1=rdt93lv.1.2 bus2=rdm187.1.2 switch=n enabled=y phases=2 Linecode=1P_UG_AL_1/0_Brenau_2

New Line.l(r:p1rlv188-rdt94lv) Units=km Length=0.0400846 bus1=rdt94lv.1.2 bus2=p1rlv188.1.2 switch=n enabled=y phases=2 Linecode=1P_UG_AL_1/0_Brenau_2

New Line.l(r:p1rlv191-rdt95lv) Units=km Length=0.0539397 bus1=rdt95lv.1.2 bus2=p1rlv191.1.2 switch=n enabled=y phases=2 Linecode=1P_UG_AL_1/0_Brenau_2

New Line.l(r:p1rlv190-rdm190) Units=km Length=0.0290498 bus1=rdm190.1.2 bus2=p1rlv190.1.2 switch=n enabled=y phases=2 Linecode=1P_UG_AL_1/0_Brenau_2

New Line.l(r:p1rlv189-rdm189) Units=km Length=0.0489924 bus1=rdm189.1.2 bus2=p1rlv189.1.2 switch=n enabled=y phases=2 Linecode=1P_UG_AL_1/0_Brenau_2

New Line.l(r:rdm189-rdm190) Units=km Length=0.00871895 bus1=rdm190.1.2 bus2=rdm189.1.2 switch=n enabled=y phases=2 Linecode=1P_UG_AL_1/0_Brenau_2

New Line.l(r:rdm190-rdt95lv) Units=km Length=0.0163723 bus1=rdt95lv.1.2 bus2=rdm190.1.2 switch=n enabled=y phases=2 Linecode=1P_UG_AL_2/0_Converse_2

New Line.l(r:p1rlv192-rdm192) Units=km Length=0.0356599 bus1=rdm192.1.2 bus2=p1rlv192.1.2 switch=n enabled=y phases=2 Linecode=1P_UG_AL_1/0_Brenau_2

New Line.l(r:p1rlv202-rdm194) Units=km Length=0.03308850000000001 bus1=rdm194.1.2 bus2=p1rlv202.1.2 switch=n enabled=y phases=2 Linecode=1P_UG_AL_1/0_Brenau_2

New Line.l(r:p1rlv193-rdm193) Units=km Length=0.0392871 bus1=rdm193.1.2 bus2=p1rlv193.1.2 switch=n enabled=y phases=2 Linecode=1P_UG_AL_1/0_Brenau_2

New Line.l(r:rdm193-rdm194) Units=km Length=0.0283572 bus1=rdm194.1.2 bus2=rdm193.1.2 switch=n enabled=y phases=2 Linecode=1P_UG_AL_1/0_Brenau_2

New Line.l(r:rdm192-rdm194) Units=km Length=0.0139759 bus1=rdm192.1.2 bus2=rdm194.1.2 switch=n enabled=y phases=2 Linecode=1P_UG_AL_2/0_Converse_2

New Line.l(r:rdm192-rdt95lv) Units=km Length=0.0115116 bus1=rdt95lv.1.2 bus2=rdm192.1.2 switch=n enabled=y phases=2 Linecode=1P_UG_AL_2/0_Converse_2

New Line.l(r:p1rlv194-rdm195) Units=km Length=0.0381298 bus1=rdm195.1.2 bus2=p1rlv194.1.2 switch=n enabled=y phases=2 Linecode=1P_UG_AL_1/0_Brenau_2

New Line.l(r:rdm195-rdt96lv) Units=km Length=0.0188956 bus1=rdt96lv.1.2 bus2=rdm195.1.2 switch=n enabled=y phases=2 Linecode=1P_UG_AL_1/0_Brenau_2

New Line.l(r:p1rlv195-rdm196) Units=km Length=0.043026 bus1=rdm196.1.2 bus2=p1rlv195.1.2 switch=n enabled=y phases=2 Linecode=1P_OH_AL_4/0_Zuzara_2

New Line.l(r:rdm196-rdt96lv) Units=km Length=0.0274738 bus1=rdt96lv.1.2 bus2=rdm196.1.2 switch=n enabled=y phases=2 Linecode=1P_OH_AL_4/0_Zuzara_2

New Line.l(r:p1rlv199-rdt97lv) Units=km Length=0.0248376 bus1=rdt97lv.1.2 bus2=p1rlv199.1.2 switch=n enabled=y phases=2 Linecode=1P_OH_AL_2/0_Rucina_2

New Line.l(r:p1rlv196-rdm197) Units=km Length=0.0362443 bus1=rdm197.1.2 bus2=p1rlv196.1.2 switch=n enabled=y phases=2 Linecode=1P_OH_AL_4/0_Zuzara_2

New Line.l(r:rdm197-rdt97lv) Units=km Length=0.0180121 bus1=rdt97lv.1.2 bus2=rdm197.1.2 switch=n enabled=y phases=2 Linecode=1P_OH_AL_2/0_Rucina_2

New Line.l(r:p1rlv197-rdm199) Units=km Length=0.0214598 bus1=rdm199.1.2 bus2=p1rlv197.1.2 switch=n enabled=y phases=2 Linecode=1P_OH_AL_2/0_Rucina_2

New Line.l(r:p1rlv198-rdm199) Units=km Length=0.0247596 bus1=rdm199.1.2 bus2=p1rlv198.1.2 switch=n enabled=y phases=2 Linecode=1P_OH_AL_2/0_Rucina_2

New Line.l(r:rdm199-rdt98lv) Units=km Length=0.018015 bus1=rdt98lv.1.2 bus2=rdm199.1.2 switch=n enabled=y phases=2 Linecode=1P_OH_AL_2/0_Rucina_2

New Line.l(r:p1rlv200-rdm201) Units=km Length=0.0478846 bus1=rdm201.1.2 bus2=p1rlv200.1.2 switch=n enabled=y phases=2 Linecode=1P_OH_AL_4/0_Zuzara_2

New Line.l(r:rdm201-rdt98lv) Units=km Length=0.05405540000000001 bus1=rdt98lv.1.2 bus2=rdm201.1.2 switch=n enabled=y phases=2 Linecode=1P_OH_AL_4/0_Zuzara_2

New Line.l(r:p1rlv201-rdt99lv) Units=km Length=0.0312786 bus1=rdt99lv.1.2 bus2=p1rlv201.1.2 switch=n enabled=y phases=2 Linecode=1P_UG_AL_1/0_Brenau_2

New Line.l(r:p1rlv204-rdm203) Units=km Length=0.0282992 bus1=rdm203.1.2 bus2=p1rlv204.1.2 switch=n enabled=y phases=2 Linecode=1P_UG_AL_1/0_Brenau_2

New Line.l(r:rdm203-rdt100lv) Units=km Length=0.0172996 bus1=rdt100lv.1.2 bus2=rdm203.1.2 switch=n enabled=y phases=2 Linecode=1P_UG_AL_1/0_Brenau_2

New Line.l(r:p1rlv212-rdm204) Units=km Length=0.0283831 bus1=rdm204.1.2 bus2=p1rlv212.1.2 switch=n enabled=y phases=2 Linecode=1P_UG_AL_1/0_Brenau_2

New Line.l(r:rdm204-rdt100lv) Units=km Length=0.0245806 bus1=rdt100lv.1.2 bus2=rdm204.1.2 switch=n enabled=y phases=2 Linecode=1P_UG_AL_1/0_Brenau_2

New Line.l(r:p1rlv214-rdt101lv) Units=km Length=0.0373563 bus1=rdt101lv.1.2 bus2=p1rlv214.1.2 switch=n enabled=y phases=2 Linecode=1P_UG_AL_1/0_Brenau_2

New Line.l(r:p1rlv205-rdm205) Units=km Length=0.0516513 bus1=rdm205.1.2 bus2=p1rlv205.1.2 switch=n enabled=y phases=2 Linecode=1P_UG_AL_1/0_Brenau_2

New Line.l(r:p1rlv207-rdm205) Units=km Length=0.0750714 bus1=rdm205.1.2 bus2=p1rlv207.1.2 switch=n enabled=y phases=2 Linecode=1P_UG_AL_1/0_Brenau_2

New Line.l(r:rdm205-rdt101lv) Units=km Length=0.009687310000000001 bus1=rdt101lv.1.2 bus2=rdm205.1.2 switch=n enabled=y phases=2 Linecode=1P_UG_AL_1/0_Brenau_2

New Line.l(r:p1rlv206-rdm208) Units=km Length=0.0553156 bus1=rdm208.1.2 bus2=p1rlv206.1.2 switch=n enabled=y phases=2 Linecode=1P_UG_AL_1/0_Brenau_2

New Line.l(r:p1rlv209-rdm208) Units=km Length=0.0831563 bus1=rdm208.1.2 bus2=p1rlv209.1.2 switch=n enabled=y phases=2 Linecode=1P_UG_AL_1/0_Brenau_2

New Line.l(r:rdm208-rdt102lv) Units=km Length=0.00968849 bus1=rdt102lv.1.2 bus2=rdm208.1.2 switch=n enabled=y phases=2 Linecode=1P_UG_AL_2/0_Converse_2

New Line.l(r:p1rlv210-rdm210) Units=km Length=0.0469282 bus1=rdm210.1.2 bus2=p1rlv210.1.2 switch=n enabled=y phases=2 Linecode=1P_UG_AL_1/0_Brenau_2

New Line.l(r:rdm210-rdt102lv) Units=km Length=0.0180979 bus1=rdt102lv.1.2 bus2=rdm210.1.2 switch=n enabled=y phases=2 Linecode=1P_UG_AL_1/0_Brenau_2

New Line.l(r:p1rlv208-rdt103lv) Units=km Length=0.09584 bus1=rdt103lv.1.2 bus2=p1rlv208.1.2 switch=n enabled=y phases=2 Linecode=1P_UG_AL_1/0_Brenau_2

New Line.l(r:p1rlv211-rdm212) Units=km Length=0.039419600000000006 bus1=rdm212.1.2 bus2=p1rlv211.1.2 switch=n enabled=y phases=2 Linecode=1P_UG_AL_1/0_Brenau_2

New Line.l(r:rdm212-rdt104lv) Units=km Length=0.00904896 bus1=rdt104lv.1.2 bus2=rdm212.1.2 switch=n enabled=y phases=2 Linecode=1P_UG_AL_1/0_Brenau_2

New Line.l(r:p1rlv217-rdm213) Units=km Length=0.0306528 bus1=rdm213.1.2 bus2=p1rlv217.1.2 switch=n enabled=y phases=2 Linecode=1P_UG_AL_1/0_Brenau_2

New Line.l(r:rdm213-rdt104lv) Units=km Length=0.0180979 bus1=rdt104lv.1.2 bus2=rdm213.1.2 switch=n enabled=y phases=2 Linecode=1P_UG_AL_1/0_Brenau_2

New Line.l(r:p1rlv213-rdm214) Units=km Length=0.0370831 bus1=rdm214.1.2 bus2=p1rlv213.1.2 switch=n enabled=y phases=2 Linecode=1P_UG_AL_1/0_Brenau_2

New Line.l(r:rdm214-rdt105lv) Units=km Length=0.0570845 bus1=rdt105lv.1.2 bus2=rdm214.1.2 switch=n enabled=y phases=2 Linecode=1P_UG_AL_1/0_Brenau_2

New Line.l(r:p1rlv215-rdm215) Units=km Length=0.0220807 bus1=rdm215.1.2 bus2=p1rlv215.1.2 switch=n enabled=y phases=2 Linecode=1P_UG_AL_1/0_Brenau_2

New Line.l(r:p1rlv6101-rdm215) Units=km Length=0.0494547 bus1=rdm215.1.2 bus2=p1rlv6101.1.2 switch=n enabled=y phases=2 Linecode=1P_UG_AL_1/0_Brenau_2

New Line.l(r:p1rlv216-rdm216) Units=km Length=0.032632 bus1=rdm216.1.2 bus2=p1rlv216.1.2 switch=n enabled=y phases=2 Linecode=1P_UG_AL_1/0_Brenau_2

New Line.l(r:rdm215-rdm216) Units=km Length=0.0387417 bus1=rdm215.1.2 bus2=rdm216.1.2 switch=n enabled=y phases=2 Linecode=1P_UG_AL_1/0_Brenau_2

New Line.l(r:rdm215-rdt105lv) Units=km Length=0.00968849 bus1=rdt105lv.1.2 bus2=rdm215.1.2 switch=n enabled=y phases=2 Linecode=1P_UG_AL_2/0_Converse_2

New Line.l(r:p1rlv218-rdt106lv) Units=km Length=0.015197100000000002 bus1=rdt106lv.1.2 bus2=p1rlv218.1.2 switch=n enabled=y phases=2 Linecode=1P_OH_AL_2/0_Rucina_2

New Line.l(r:p1rlv219-rdt106lv) Units=km Length=0.0557918 bus1=rdt106lv.1.2 bus2=p1rlv219.1.2 switch=n enabled=y phases=2 Linecode=1P_OH_AL_4/0_Zuzara_2

New Line.l(r:p1rlv220-rdt106lv) Units=km Length=0.0845419 bus1=rdt106lv.1.2 bus2=p1rlv220.1.2 switch=n enabled=y phases=2 Linecode=1P_OH_AL_4/0_Zuzara_2

New Line.l(r:p1rlv221-rdt106lv) Units=km Length=0.11694300000000002 bus1=rdt106lv.1.2 bus2=p1rlv221.1.2 switch=n enabled=y phases=2 Linecode=1P_OH_AL_4/0_Zuzara_2

New Line.l(r:p1rlv6105-rdm222) Units=km Length=0.0161446 bus1=rdm222.1.2 bus2=p1rlv6105.1.2 switch=n enabled=y phases=2 Linecode=1P_OH_AL_2/0_Rucina_2

New Line.l(r:rdm222-rdt106lv) Units=km Length=0.0190559 bus1=rdt106lv.1.2 bus2=rdm222.1.2 switch=n enabled=y phases=2 Linecode=1P_OH_AL_2/0_Rucina_2

New Line.l(r:p1rlv222-rdt107lv) Units=km Length=0.001 bus1=rdt107lv.1.2 bus2=p1rlv222.1.2 switch=n enabled=y phases=2 Linecode=1P_OH_AL_4_Periwinkle_2

New Line.l(r:p1rlv223-rdt108lv) Units=km Length=0.001 bus1=rdt108lv.1.2 bus2=p1rlv223.1.2 switch=n enabled=y phases=2 Linecode=1P_OH_AL_4_Periwinkle_2

New Line.l(r:p1rlv224-rdt109lv) Units=km Length=0.0293539 bus1=rdt109lv.1.2 bus2=p1rlv224.1.2 switch=n enabled=y phases=2 Linecode=1P_UG_AL_1/0_Brenau_2

New Line.l(r:p1rlv228-rdt109lv) Units=km Length=0.0430911 bus1=rdt109lv.1.2 bus2=p1rlv228.1.2 switch=n enabled=y phases=2 Linecode=1P_UG_AL_1/0_Brenau_2

New Line.l(r:p1rlv226-rdt110lv) Units=km Length=0.0778528 bus1=rdt110lv.1.2 bus2=p1rlv226.1.2 switch=n enabled=y phases=2 Linecode=1P_UG_AL_1/0_Brenau_2

New Line.l(r:p1rlv225-rdm227) Units=km Length=0.05841260000000001 bus1=rdm227.1.2 bus2=p1rlv225.1.2 switch=n enabled=y phases=2 Linecode=1P_UG_AL_1/0_Brenau_2

New Line.l(r:rdm227-rdt110lv) Units=km Length=0.00710119 bus1=rdt110lv.1.2 bus2=rdm227.1.2 switch=n enabled=y phases=2 Linecode=1P_UG_AL_1/0_Brenau_2

New Line.l(r:p1rlv227-rdm229) Units=km Length=0.038712 bus1=rdm229.1.2 bus2=p1rlv227.1.2 switch=n enabled=y phases=2 Linecode=1P_UG_AL_1/0_Brenau_2

New Line.l(r:rdm229-rdt110lv) Units=km Length=0.0142024 bus1=rdt110lv.1.2 bus2=rdm229.1.2 switch=n enabled=y phases=2 Linecode=1P_UG_AL_1/0_Brenau_2

New Line.l(r:p1rlv229-rdt111lv) Units=km Length=0.0238013 bus1=rdt111lv.1.2 bus2=p1rlv229.1.2 switch=n enabled=y phases=2 Linecode=1P_UG_AL_1/0_Brenau_2

New Line.l(r:p1rlv231-rdt112lv) Units=km Length=0.0243089 bus1=rdt112lv.1.2 bus2=p1rlv231.1.2 switch=n enabled=y phases=2 Linecode=1P_UG_AL_1/0_Brenau_2

New Line.l(r:p1rlv232-rdm233) Units=km Length=0.0344644 bus1=rdm233.1.2 bus2=p1rlv232.1.2 switch=n enabled=y phases=2 Linecode=1P_UG_AL_1/0_Brenau_2

New Line.l(r:p1rlv230-rdm231) Units=km Length=0.0369028 bus1=rdm231.1.2 bus2=p1rlv230.1.2 switch=n enabled=y phases=2 Linecode=1P_UG_AL_1/0_Brenau_2

New Line.l(r:rdm231-rdm233) Units=km Length=0.00900125 bus1=rdm233.1.2 bus2=rdm231.1.2 switch=n enabled=y phases=2 Linecode=1P_UG_AL_1/0_Brenau_2

New Line.l(r:rdm233-rdt112lv) Units=km Length=0.0185667 bus1=rdt112lv.1.2 bus2=rdm233.1.2 switch=n enabled=y phases=2 Linecode=1P_UG_AL_2/0_Converse_2

New Line.l(r:p1rlv233-rdm234) Units=km Length=0.0238384 bus1=rdm234.1.2 bus2=p1rlv233.1.2 switch=n enabled=y phases=2 Linecode=1P_UG_AL_1/0_Brenau_2

New Line.l(r:rdm234-rdt112lv) Units=km Length=0.0557806 bus1=rdt112lv.1.2 bus2=rdm234.1.2 switch=n enabled=y phases=2 Linecode=1P_UG_AL_1/0_Brenau_2

New Line.l(r:p1rlv234-rdt113lv) Units=km Length=0.04073430000000001 bus1=rdt113lv.1.2 bus2=p1rlv234.1.2 switch=n enabled=y phases=2 Linecode=1P_OH_AL_4/0_Zuzara_2

New Line.l(r:p1rlv235-rdt113lv) Units=km Length=0.00637778 bus1=rdt113lv.1.2 bus2=p1rlv235.1.2 switch=n enabled=y phases=2 Linecode=1P_OH_AL_2/0_Rucina_2

New Line.l(r:p1rlv236-rdt113lv) Units=km Length=0.0379994 bus1=rdt113lv.1.2 bus2=p1rlv236.1.2 switch=n enabled=y phases=2 Linecode=1P_OH_AL_4/0_Zuzara_2

New Line.l(r:p1rlv237-rdt114lv) Units=km Length=0.001 bus1=rdt114lv.1.2 bus2=p1rlv237.1.2 switch=n enabled=y phases=2 Linecode=1P_OH_AL_4_Periwinkle_2

New Line.l(r:p1rlv238-rdt115lv) Units=km Length=0.001 bus1=rdt115lv.1.2 bus2=p1rlv238.1.2 switch=n enabled=y phases=2 Linecode=1P_OH_AL_4_Periwinkle_2

New Line.l(r:p1rlv239-rdt116lv) Units=km Length=0.0206544 bus1=rdt116lv.1.2 bus2=p1rlv239.1.2 switch=n enabled=y phases=2 Linecode=1P_OH_AL_2/0_Rucina_2

New Line.l(r:p1rlv240-rdt116lv) Units=km Length=0.016626 bus1=rdt116lv.1.2 bus2=p1rlv240.1.2 switch=n enabled=y phases=2 Linecode=1P_OH_AL_2/0_Rucina_2

New Line.l(r:p1rlv241-rdt116lv) Units=km Length=0.0316057 bus1=rdt116lv.1.2 bus2=p1rlv241.1.2 switch=n enabled=y phases=2 Linecode=1P_OH_AL_4/0_Zuzara_2

New Line.l(r:p1rlv242-rdt117lv) Units=km Length=0.0604159 bus1=rdt117lv.1.2 bus2=p1rlv242.1.2 switch=n enabled=y phases=2 Linecode=1P_OH_AL_4/0_Zuzara_2

New Line.l(r:p1rlv244-rdt118lv) Units=km Length=0.0530107 bus1=rdt118lv.1.2 bus2=p1rlv244.1.2 switch=n enabled=y phases=2 Linecode=1P_UG_AL_1/0_Brenau_2

New Line.l(r:p1rlv243-rdm244) Units=km Length=0.092351 bus1=rdm244.1.2 bus2=p1rlv243.1.2 switch=n enabled=y phases=2 Linecode=1P_UG_AL_1/0_Brenau_2

New Line.l(r:rdm244-rdt118lv) Units=km Length=0.00978579 bus1=rdt118lv.1.2 bus2=rdm244.1.2 switch=n enabled=y phases=2 Linecode=1P_UG_AL_1/0_Brenau_2

New Line.l(r:p1rlv245-rdt119lv) Units=km Length=0.0593917 bus1=rdt119lv.1.2 bus2=p1rlv245.1.2 switch=n enabled=y phases=2 Linecode=1P_UG_AL_1/0_Brenau_2

New Line.l(r:p1rlv246-rdt120lv) Units=km Length=0.001 bus1=rdt120lv.1.2 bus2=p1rlv246.1.2 switch=n enabled=y phases=2 Linecode=1P_OH_AL_4_Periwinkle_2

New Line.l(r:p1rlv247-rdt121lv) Units=km Length=0.001 bus1=rdt121lv.1.2 bus2=p1rlv247.1.2 switch=n enabled=y phases=2 Linecode=1P_OH_AL_4_Periwinkle_2

New Line.l(r:p1rlv248-rdm249) Units=km Length=0.055580500000000005 bus1=rdm249.1.2 bus2=p1rlv248.1.2 switch=n enabled=y phases=2 Linecode=1P_UG_AL_1/0_Brenau_2

New Line.l(r:rdm249-rdt122lv) Units=km Length=0.00819156 bus1=rdt122lv.1.2 bus2=rdm249.1.2 switch=n enabled=y phases=2 Linecode=1P_UG_AL_1/0_Brenau_2

New Line.l(r:p1rlv249-rdm250) Units=km Length=0.0379012 bus1=rdm250.1.2 bus2=p1rlv249.1.2 switch=n enabled=y phases=2 Linecode=1P_UG_AL_1/0_Brenau_2

New Line.l(r:rdm250-rdt122lv) Units=km Length=0.00819176 bus1=rdt122lv.1.2 bus2=rdm250.1.2 switch=n enabled=y phases=2 Linecode=1P_UG_AL_1/0_Brenau_2

New Line.l(r:p1rlv250-rdm251) Units=km Length=0.030509700000000004 bus1=rdm251.1.2 bus2=p1rlv250.1.2 switch=n enabled=y phases=2 Linecode=1P_OH_AL_4/0_Zuzara_2

New Line.l(r:rdm251-rdt123lv) Units=km Length=0.0268305 bus1=rdt123lv.1.2 bus2=rdm251.1.2 switch=n enabled=y phases=2 Linecode=1P_OH_AL_2/0_Rucina_2

New Line.l(r:p1rlv251-rdm252) Units=km Length=0.0337008 bus1=rdm252.1.2 bus2=p1rlv251.1.2 switch=n enabled=y phases=2 Linecode=1P_OH_AL_4/0_Zuzara_2

New Line.l(r:rdm252-rdt123lv) Units=km Length=0.0192266 bus1=rdt123lv.1.2 bus2=rdm252.1.2 switch=n enabled=y phases=2 Linecode=1P_OH_AL_2/0_Rucina_2

New Line.l(r:p1rlv252-rdt124lv) Units=km Length=0.012168 bus1=rdt124lv.1.2 bus2=p1rlv252.1.2 switch=n enabled=y phases=2 Linecode=1P_OH_AL_2/0_Rucina_2

New Line.l(r:p1rlv253-rdt124lv) Units=km Length=0.012168 bus1=rdt124lv.1.2 bus2=p1rlv253.1.2 switch=n enabled=y phases=2 Linecode=1P_OH_AL_2/0_Rucina_2

New Line.l(r:p1rlv254-rdt125lv) Units=km Length=0.001 bus1=rdt125lv.1.2 bus2=p1rlv254.1.2 switch=n enabled=y phases=2 Linecode=1P_OH_AL_4_Periwinkle_2

New Line.l(r:p1rlv255-rdt126lv) Units=km Length=0.0452085 bus1=rdt126lv.1.2 bus2=p1rlv255.1.2 switch=n enabled=y phases=2 Linecode=1P_OH_AL_4/0_Zuzara_2

New Line.l(r:p1rlv256-rdt126lv) Units=km Length=0.0986854 bus1=rdt126lv.1.2 bus2=p1rlv256.1.2 switch=n enabled=y phases=2 Linecode=1P_OH_AL_4/0_Zuzara_2

New Line.l(r:p1rlv257-rdt127lv) Units=km Length=0.001 bus1=rdt127lv.1.2 bus2=p1rlv257.1.2 switch=n enabled=y phases=2 Linecode=1P_OH_AL_4_Periwinkle_2

New Line.l(r:p1rlv258-rdt128lv) Units=km Length=0.001 bus1=rdt128lv.1.2 bus2=p1rlv258.1.2 switch=n enabled=y phases=2 Linecode=1P_OH_AL_4_Periwinkle_2

New Line.l(r:p1rlv259-rdt129lv) Units=km Length=0.029294400000000005 bus1=rdt129lv.1.2 bus2=p1rlv259.1.2 switch=n enabled=y phases=2 Linecode=1P_OH_AL_4/0_Zuzara_2

New Line.l(r:p1rlv260-rdt130lv) Units=km Length=0.0974934 bus1=rdt130lv.1.2 bus2=p1rlv260.1.2 switch=n enabled=y phases=2 Linecode=1P_OH_AL_4/0_Zuzara_2

New Line.l(r:p1rlv261-rdt131lv) Units=km Length=0.0815265 bus1=rdt131lv.1.2 bus2=p1rlv261.1.2 switch=n enabled=y phases=2 Linecode=1P_OH_AL_4/0_Zuzara_2

New Line.l(r:p1rlv262-rdt132lv) Units=km Length=0.0599951 bus1=rdt132lv.1.2 bus2=p1rlv262.1.2 switch=n enabled=y phases=2 Linecode=1P_OH_AL_4/0_Zuzara_2

New Line.l(r:p1rlv263-rdt132lv) Units=km Length=0.0599951 bus1=rdt132lv.1.2 bus2=p1rlv263.1.2 switch=n enabled=y phases=2 Linecode=1P_OH_AL_4/0_Zuzara_2

New Line.l(r:p1rlv264-rdt133lv) Units=km Length=0.001 bus1=rdt133lv.1.2 bus2=p1rlv264.1.2 switch=n enabled=y phases=2 Linecode=1P_OH_AL_4_Periwinkle_2

New Line.l(r:p1rlv265-rdm266) Units=km Length=0.0258546 bus1=rdm266.1.2 bus2=p1rlv265.1.2 switch=n enabled=y phases=2 Linecode=1P_UG_AL_1/0_Brenau_2

New Line.l(r:rdm266-rdt134lv) Units=km Length=0.0180006 bus1=rdt134lv.1.2 bus2=rdm266.1.2 switch=n enabled=y phases=2 Linecode=1P_UG_AL_1/0_Brenau_2

New Line.l(r:p1rlv266-rdm267) Units=km Length=0.0283394 bus1=rdm267.1.2 bus2=p1rlv266.1.2 switch=n enabled=y phases=2 Linecode=1P_UG_AL_1/0_Brenau_2

New Line.l(r:rdm267-rdt134lv) Units=km Length=0.00900029 bus1=rdt134lv.1.2 bus2=rdm267.1.2 switch=n enabled=y phases=2 Linecode=1P_UG_AL_1/0_Brenau_2

...