pydss-projects/GSO_Rural_Base_rhs1_rdt137/DSSfiles/Loads.dss
New Load.load_p1rlv1_1 conn=wye bus1=p1rlv1.1 kV=0.12 Vminpu=0.8 Vmaxpu=1.2 model=1 kW=4.658663502989286 kvar=1.3388389434895354 Phases=1 yearly=res_kw_182_pu

New Load.load_p1rlv1_2 conn=wye bus1=p1rlv1.2 kV=0.12 Vminpu=0.8 Vmaxpu=1.2 model=1 kW=4.658663502989286 kvar=1.3388389434895354 Phases=1 yearly=res_kw_182_pu

New Load.load_p1rlv2_1 conn=wye bus1=p1rlv2.1 kV=0.12 Vminpu=0.8 Vmaxpu=1.2 model=1 kW=5.436729579526792 kvar=1.2488470964899614 Phases=1 yearly=res_kw_454_pu

New Load.load_p1rlv2_2 conn=wye bus1=p1rlv2.2 kV=0.12 Vminpu=0.8 Vmaxpu=1.2 model=1 kW=5.436729579526792 kvar=1.2488470964899614 Phases=1 yearly=res_kw_454_pu

New Load.load_p1rlv3_1 conn=wye bus1=p1rlv3.1 kV=0.12 Vminpu=0.8 Vmaxpu=1.2 model=1 kW=1.07594874218897 kvar=0.4942830176942115 Phases=1 yearly=res_kw_366_pu

New Load.load_p1rlv3_2 conn=wye bus1=p1rlv3.2 kV=0.12 Vminpu=0.8 Vmaxpu=1.2 model=1 kW=1.07594874218897 kvar=0.4942830176942115 Phases=1 yearly=res_kw_366_pu

New Load.load_p1rlv4_1 conn=wye bus1=p1rlv4.1 kV=0.12 Vminpu=0.8 Vmaxpu=1.2 model=1 kW=3.3641909207712115 kvar=0.9284266244461494 Phases=1 yearly=res_kw_523_pu

New Load.load_p1rlv4_2 conn=wye bus1=p1rlv4.2 kV=0.12 Vminpu=0.8 Vmaxpu=1.2 model=1 kW=3.3641909207712115 kvar=0.9284266244461494 Phases=1 yearly=res_kw_523_pu

New Load.load_p1rlv5_1 conn=wye bus1=p1rlv5.1 kV=0.12 Vminpu=0.8 Vmaxpu=1.2 model=1 kW=4.214693141244944 kvar=0.7957494962408852 Phases=1 yearly=res_kw_1249_pu

New Load.load_p1rlv5_2 conn=wye bus1=p1rlv5.2 kV=0.12 Vminpu=0.8 Vmaxpu=1.2 model=1 kW=4.214693141244944 kvar=0.7957494962408852 Phases=1 yearly=res_kw_1249_pu

New Load.load_p1rlv6_1 conn=wye bus1=p1rlv6.1 kV=0.12 Vminpu=0.8 Vmaxpu=1.2 model=1 kW=1.3741353032147752 kvar=0.58237922359024 Phases=1 yearly=res_kw_1041_pu

New Load.load_p1rlv6_2 conn=wye bus1=p1rlv6.2 kV=0.12 Vminpu=0.8 Vmaxpu=1.2 model=1 kW=1.3741353032147752 kvar=0.58237922359024 Phases=1 yearly=res_kw_1041_pu

New Load.load_p1rlv7_1 conn=wye bus1=p1rlv7.1 kV=0.12 Vminpu=0.8 Vmaxpu=1.2 model=1 kW=3.460037762068802 kvar=0.6117019426679855 Phases=1 yearly=res_kw_205_pu

New Load.load_p1rlv7_2 conn=wye bus1=p1rlv7.2 kV=0.12 Vminpu=0.8 Vmaxpu=1.2 model=1 kW=3.460037762068802 kvar=0.6117019426679855 Phases=1 yearly=res_kw_205_pu

New Load.load_p1rlv8_1 conn=wye bus1=p1rlv8.1 kV=0.12 Vminpu=0.8 Vmaxpu=1.2 model=1 kW=2.5047232020051142 kvar=0.6800922265265169 Phases=1 yearly=res_kw_162_pu

New Load.load_p1rlv8_2 conn=wye bus1=p1rlv8.2 kV=0.12 Vminpu=0.8 Vmaxpu=1.2 model=1 kW=2.5047232020051142 kvar=0.6800922265265169 Phases=1 yearly=res_kw_162_pu

New Load.load_p1rlv9_1 conn=wye bus1=p1rlv9.1 kV=0.12 Vminpu=0.8 Vmaxpu=1.2 model=1 kW=3.789884331965197 kvar=1.0036576715582408 Phases=1 yearly=res_kw_670_pu

New Load.load_p1rlv9_2 conn=wye bus1=p1rlv9.2 kV=0.12 Vminpu=0.8 Vmaxpu=1.2 model=1 kW=3.789884331965197 kvar=1.0036576715582408 Phases=1 yearly=res_kw_670_pu

New Load.load_p1rlv10_1 conn=wye bus1=p1rlv10.1 kV=0.12 Vminpu=0.8 Vmaxpu=1.2 model=1 kW=3.8748715750127736 kvar=1.5614372175332516 Phases=1 yearly=res_kw_517_pu

New Load.load_p1rlv10_2 conn=wye bus1=p1rlv10.2 kV=0.12 Vminpu=0.8 Vmaxpu=1.2 model=1 kW=3.8748715750127736 kvar=1.5614372175332516 Phases=1 yearly=res_kw_517_pu

New Load.load_p1rlv11_1 conn=wye bus1=p1rlv11.1 kV=0.12 Vminpu=0.8 Vmaxpu=1.2 model=1 kW=4.658663502989286 kvar=1.3388389434895354 Phases=1 yearly=res_kw_182_pu

New Load.load_p1rlv11_2 conn=wye bus1=p1rlv11.2 kV=0.12 Vminpu=0.8 Vmaxpu=1.2 model=1 kW=4.658663502989286 kvar=1.3388389434895354 Phases=1 yearly=res_kw_182_pu

New Load.load_p1rlv12_1 conn=wye bus1=p1rlv12.1 kV=0.12 Vminpu=0.8 Vmaxpu=1.2 model=1 kW=3.469755020859998 kvar=0.8941520384931253 Phases=1 yearly=res_kw_4_pu

New Load.load_p1rlv12_2 conn=wye bus1=p1rlv12.2 kV=0.12 Vminpu=0.8 Vmaxpu=1.2 model=1 kW=3.469755020859998 kvar=0.8941520384931253 Phases=1 yearly=res_kw_4_pu

New Load.load_p1rlv13_1 conn=wye bus1=p1rlv13.1 kV=0.12 Vminpu=0.8 Vmaxpu=1.2 model=1 kW=5.942686091683347 kvar=1.452957393533487 Phases=1 yearly=res_kw_772_pu

New Load.load_p1rlv13_2 conn=wye bus1=p1rlv13.2 kV=0.12 Vminpu=0.8 Vmaxpu=1.2 model=1 kW=5.942686091683347 kvar=1.452957393533487 Phases=1 yearly=res_kw_772_pu

New Load.load_p1rlv14_1 conn=wye bus1=p1rlv14.1 kV=0.12 Vminpu=0.8 Vmaxpu=1.2 model=1 kW=10.375628907780863 kvar=4.616486224330442 Phases=1 yearly=res_kw_1267_pu

New Load.load_p1rlv14_2 conn=wye bus1=p1rlv14.2 kV=0.12 Vminpu=0.8 Vmaxpu=1.2 model=1 kW=10.375628907780863 kvar=4.616486224330442 Phases=1 yearly=res_kw_1267_pu

New Load.load_p1rlv15_1 conn=wye bus1=p1rlv15.1 kV=0.12 Vminpu=0.8 Vmaxpu=1.2 model=1 kW=1.07594874218897 kvar=0.4942830176942115 Phases=1 yearly=res_kw_366_pu

New Load.load_p1rlv15_2 conn=wye bus1=p1rlv15.2 kV=0.12 Vminpu=0.8 Vmaxpu=1.2 model=1 kW=1.07594874218897 kvar=0.4942830176942115 Phases=1 yearly=res_kw_366_pu

New Load.load_p1rlv16_1 conn=wye bus1=p1rlv16.1 kV=0.12 Vminpu=0.8 Vmaxpu=1.2 model=1 kW=5.436729579526792 kvar=1.2488470964899614 Phases=1 yearly=res_kw_454_pu

...